/*--------------------------------*- C++ -*----------------------------------*\
| =========                 |                                                 |
| \\      /  F ield         | OpenFOAM: The Open Source CFD Toolbox           |
|  \\    /   O peration     | Version:  2112                                  |
|   \\  /    A nd           | Website:  www.openfoam.com                      |
|    \\/     M anipulation  |                                                 |
\*---------------------------------------------------------------------------*/
FoamFile
{
    version     2.0;
    format      ascii;
    arch        "LSB;label=32;scalar=64";
    class       featureEdgeMesh;
    location    "constant/triSurface";
    object      frame.eMesh;
}
// * * * * * * * * * * * * * * * * * * * * * * * * * * * * * * * * * * * * * //


// points:

276
(
(0.735 0.318 0.195)
(0.737 0.318 0.195)
(0.737 0.318 0.295)
(0.735 0.318 0.295)
(0.735 0.738 0.195)
(0.737 0.738 0.195)
(0.735 0.738 0.295)
(0.737 0.738 0.295)
(0.732 0.317 1.085)
(0.732 0.317 1.055)
(0.762 0.317 1.055)
(0.762 0.317 1.085)
(0.762 0.74 1.055)
(0.762 0.74 1.085)
(0.732 0.74 1.055)
(0.732 0.74 1.085)
(0.310926 0.288019 1.332)
(0.310926 0.288019 1.302)
(0.732926 0.288019 1.302)
(0.732926 0.288019 1.332)
(0.732926 0.318019 1.302)
(0.732926 0.318019 1.332)
(0.310926 0.318019 1.302)
(0.310926 0.318019 1.332)
(0.310926 0.288019 0.125)
(0.310926 0.288019 0.095)
(0.732926 0.288019 0.095)
(0.732926 0.288019 0.125)
(0.732926 0.318019 0.095)
(0.732926 0.318019 0.125)
(0.310926 0.318019 0.095)
(0.310926 0.318019 0.125)
(0.732 0.741 0.195)
(0.732 0.743 0.195)
(0.732 0.743 0.295)
(0.732 0.741 0.295)
(0.312 0.741 0.195)
(0.312 0.743 0.195)
(0.312 0.741 0.295)
(0.312 0.743 0.295)
(0.282 0.317 1.332)
(0.282 0.317 1.302)
(0.312 0.317 1.302)
(0.312 0.317 1.332)
(0.312 0.74 1.302)
(0.312 0.74 1.332)
(0.282 0.74 1.302)
(0.282 0.74 1.332)
(0.337 0.713 0.005)
(0.337 0.713 0)
(0.337 0.793 0)
(0.337 0.793 0.005)
(0.257 0.793 0)
(0.257 0.793 0.005)
(0.257 0.713 0)
(0.257 0.713 0.005)
(0.282 0.768 0.005)
(0.282 0.738 0.005)
(0.312 0.738 0.005)
(0.312 0.768 0.005)
(0.282 0.768 1.365)
(0.282 0.738 1.365)
(0.312 0.738 1.365)
(0.312 0.768 1.365)
(0.310926 0.738019 0.125)
(0.310926 0.738019 0.095)
(0.732926 0.738019 0.095)
(0.732926 0.738019 0.125)
(0.732926 0.768019 0.095)
(0.732926 0.768019 0.125)
(0.310926 0.768019 0.095)
(0.310926 0.768019 0.125)
(0.732 0.317 0.325)
(0.732 0.317 0.295)
(0.762 0.317 0.295)
(0.762 0.317 0.325)
(0.762 0.74 0.295)
(0.762 0.74 0.325)
(0.732 0.74 0.295)
(0.732 0.74 0.325)
(0.310926 0.738019 0.565)
(0.310926 0.738019 0.535)
(0.732926 0.738019 0.535)
(0.732926 0.738019 0.565)
(0.732926 0.768019 0.535)
(0.732926 0.768019 0.565)
(0.310926 0.768019 0.535)
(0.310926 0.768019 0.565)
(0.337 0.263 0.005)
(0.337 0.263 0)
(0.337 0.343 0)
(0.337 0.343 0.005)
(0.257 0.343 0)
(0.257 0.343 0.005)
(0.257 0.263 0)
(0.257 0.263 0.005)
(0.282096 0.317873 0.005)
(0.282096 0.287873 0.005)
(0.312096 0.287873 0.005)
(0.312096 0.317873 0.005)
(0.312096 0.287873 1.365)
(0.312096 0.317873 1.365)
(0.282096 0.317873 1.365)
(0.282096 0.287873 1.365)
(0.732 0.313 0.195)
(0.732 0.315 0.195)
(0.732 0.315 0.295)
(0.732 0.313 0.295)
(0.312 0.313 0.195)
(0.312 0.315 0.195)
(0.312 0.313 0.295)
(0.312 0.315 0.295)
(0.310926 0.738019 1.332)
(0.310926 0.738019 1.302)
(0.732926 0.738019 1.302)
(0.732926 0.738019 1.332)
(0.732926 0.768019 1.302)
(0.732926 0.768019 1.332)
(0.310926 0.768019 1.302)
(0.310926 0.768019 1.332)
(0.312 0.317 0.325)
(0.312 0.317 0.295)
(0.342 0.317 0.295)
(0.342 0.317 0.325)
(0.342 0.74 0.295)
(0.342 0.74 0.325)
(0.312 0.74 0.295)
(0.312 0.74 0.325)
(0.787 0.713 0.005)
(0.787 0.713 0)
(0.787 0.793 0)
(0.787 0.793 0.005)
(0.707 0.793 0)
(0.707 0.793 0.005)
(0.707 0.713 0)
(0.707 0.713 0.005)
(0.732 0.738 0.005)
(0.762 0.738 0.005)
(0.762 0.768 0.005)
(0.732 0.768 0.005)
(0.732 0.768 1.365)
(0.732 0.738 1.365)
(0.762 0.738 1.365)
(0.762 0.768 1.365)
(0.787 0.263 0.005)
(0.787 0.263 0)
(0.787 0.343 0)
(0.787 0.343 0.005)
(0.707 0.343 0)
(0.707 0.343 0.005)
(0.707 0.263 0)
(0.707 0.263 0.005)
(0.732 0.318 0.005)
(0.762 0.318 0.005)
(0.732 0.288 0.005)
(0.762 0.288 0.005)
(0.762 0.288 1.365)
(0.762 0.318 1.365)
(0.732 0.318 1.365)
(0.732 0.288 1.365)
(0.310926 0.738019 0.325)
(0.310926 0.738019 0.295)
(0.732926 0.738019 0.295)
(0.732926 0.738019 0.325)
(0.732926 0.768019 0.295)
(0.732926 0.768019 0.325)
(0.310926 0.768019 0.295)
(0.310926 0.768019 0.325)
(0.310926 0.738019 0.852)
(0.310926 0.738019 0.822)
(0.732926 0.738019 0.822)
(0.732926 0.738019 0.852)
(0.732926 0.768019 0.822)
(0.732926 0.768019 0.852)
(0.310926 0.768019 0.822)
(0.310926 0.768019 0.852)
(0.310926 0.738019 1.085)
(0.310926 0.738019 1.055)
(0.732926 0.738019 1.055)
(0.732926 0.738019 1.085)
(0.732926 0.768019 1.055)
(0.732926 0.768019 1.085)
(0.310926 0.768019 1.055)
(0.310926 0.768019 1.085)
(0.310926 0.288019 0.325)
(0.310926 0.288019 0.295)
(0.732926 0.288019 0.295)
(0.732926 0.288019 0.325)
(0.732926 0.318019 0.295)
(0.732926 0.318019 0.325)
(0.310926 0.318019 0.295)
(0.310926 0.318019 0.325)
(0.310926 0.288019 0.565)
(0.310926 0.288019 0.535)
(0.732926 0.288019 0.535)
(0.732926 0.288019 0.565)
(0.732926 0.318019 0.535)
(0.732926 0.318019 0.565)
(0.310926 0.318019 0.535)
(0.310926 0.318019 0.565)
(0.310926 0.288019 0.852)
(0.310926 0.288019 0.822)
(0.732926 0.288019 0.822)
(0.732926 0.288019 0.852)
(0.732926 0.318019 0.822)
(0.732926 0.318019 0.852)
(0.310926 0.318019 0.822)
(0.310926 0.318019 0.852)
(0.310926 0.288019 1.085)
(0.310926 0.288019 1.055)
(0.732926 0.288019 1.055)
(0.732926 0.288019 1.085)
(0.732926 0.318019 1.055)
(0.732926 0.318019 1.085)
(0.310926 0.318019 1.055)
(0.310926 0.318019 1.085)
(0.282 0.317 0.325)
(0.282 0.317 0.295)
(0.282 0.74 0.295)
(0.282 0.74 0.325)
(0.282 0.317 0.565)
(0.282 0.317 0.535)
(0.312 0.317 0.535)
(0.312 0.317 0.565)
(0.312 0.74 0.535)
(0.312 0.74 0.565)
(0.282 0.74 0.535)
(0.282 0.74 0.565)
(0.282 0.317 1.085)
(0.282 0.317 1.055)
(0.312 0.317 1.055)
(0.312 0.317 1.085)
(0.312 0.74 1.055)
(0.312 0.74 1.085)
(0.282 0.74 1.055)
(0.282 0.74 1.085)
(0.732 0.317 0.565)
(0.732 0.317 0.535)
(0.762 0.317 0.535)
(0.762 0.317 0.565)
(0.762 0.74 0.535)
(0.762 0.74 0.565)
(0.732 0.74 0.535)
(0.732 0.74 0.565)
(0.732 0.317 1.332)
(0.732 0.317 1.302)
(0.762 0.317 1.302)
(0.762 0.317 1.332)
(0.762 0.74 1.302)
(0.762 0.74 1.332)
(0.732 0.74 1.302)
(0.732 0.74 1.332)
(0.692 0.318 0.852)
(0.692 0.318 0.822)
(0.692 0.738 0.822)
(0.692 0.738 0.852)
(0.689 0.738 0.822)
(0.689 0.738 0.852)
(0.689 0.318 0.822)
(0.689 0.318 0.852)
(0.355 0.318 0.852)
(0.355 0.318 0.822)
(0.355 0.738 0.822)
(0.355 0.738 0.852)
(0.352 0.738 0.822)
(0.352 0.738 0.852)
(0.352 0.318 0.822)
(0.352 0.318 0.852)
(0.307 0.318 0.195)
(0.309 0.318 0.195)
(0.309 0.318 0.295)
(0.307 0.318 0.295)
(0.307 0.738 0.195)
(0.309 0.738 0.195)
(0.307 0.738 0.295)
(0.309 0.738 0.295)
)


// edges:

650
(
(0 1)
(1 2)
(2 3)
(3 0)
(4 5)
(5 1)
(0 4)
(6 7)
(7 5)
(4 6)
(2 7)
(6 3)
(8 9)
(9 10)
(10 11)
(11 8)
(10 12)
(12 13)
(13 11)
(12 14)
(14 15)
(15 13)
(14 9)
(8 15)
(16 17)
(17 18)
(18 19)
(19 16)
(18 20)
(20 21)
(21 19)
(20 22)
(22 23)
(23 21)
(22 17)
(16 23)
(24 25)
(25 26)
(26 27)
(27 24)
(26 28)
(28 29)
(29 27)
(28 30)
(30 31)
(31 29)
(30 25)
(24 31)
(32 33)
(33 34)
(34 35)
(35 32)
(36 37)
(37 33)
(32 36)
(38 39)
(39 37)
(36 38)
(34 39)
(38 35)
(40 41)
(41 42)
(42 43)
(43 40)
(42 44)
(44 45)
(45 43)
(44 46)
(46 47)
(47 45)
(46 41)
(40 47)
(48 49)
(49 50)
(50 51)
(51 48)
(50 52)
(52 53)
(53 51)
(52 54)
(54 55)
(55 53)
(54 49)
(48 55)
(60 56)
(57 61)
(61 60)
(58 62)
(62 61)
(59 63)
(63 62)
(60 63)
(64 65)
(65 66)
(66 67)
(67 64)
(66 68)
(68 69)
(69 67)
(68 70)
(70 71)
(71 69)
(70 65)
(64 71)
(72 73)
(73 74)
(74 75)
(75 72)
(74 76)
(76 77)
(77 75)
(76 78)
(78 79)
(79 77)
(78 73)
(72 79)
(80 81)
(81 82)
(82 83)
(83 80)
(82 84)
(84 85)
(85 83)
(84 86)
(86 87)
(87 85)
(86 81)
(80 87)
(88 89)
(89 90)
(90 91)
(91 88)
(90 92)
(92 93)
(93 91)
(92 94)
(94 95)
(95 93)
(94 89)
(88 95)
(100 98)
(99 101)
(101 100)
(96 102)
(102 101)
(97 103)
(103 102)
(100 103)
(104 105)
(105 106)
(106 107)
(107 104)
(108 109)
(109 105)
(104 108)
(110 111)
(111 109)
(108 110)
(106 111)
(110 107)
(112 113)
(113 114)
(114 115)
(115 112)
(114 116)
(116 117)
(117 115)
(116 118)
(118 119)
(119 117)
(118 113)
(112 119)
(121 122)
(122 123)
(123 120)
(122 124)
(124 125)
(125 123)
(124 126)
(127 125)
(128 129)
(129 130)
(130 131)
(131 128)
(130 132)
(132 133)
(133 131)
(132 134)
(134 135)
(135 133)
(134 129)
(128 135)
(140 139)
(136 141)
(141 140)
(137 142)
(142 141)
(138 143)
(143 142)
(140 143)
(144 145)
(145 146)
(146 147)
(147 144)
(146 148)
(148 149)
(149 147)
(148 150)
(150 151)
(151 149)
(150 145)
(144 151)
(156 155)
(153 157)
(157 156)
(152 158)
(158 157)
(154 159)
(159 158)
(156 159)
(160 161)
(161 162)
(162 163)
(163 160)
(162 164)
(164 165)
(165 163)
(164 166)
(166 167)
(167 165)
(166 161)
(160 167)
(168 169)
(169 170)
(170 171)
(171 168)
(170 172)
(172 173)
(173 171)
(172 174)
(174 175)
(175 173)
(174 169)
(168 175)
(176 177)
(177 178)
(178 179)
(179 176)
(178 180)
(180 181)
(181 179)
(180 182)
(182 183)
(183 181)
(182 177)
(176 183)
(184 185)
(185 186)
(186 187)
(187 184)
(186 188)
(188 189)
(189 187)
(188 190)
(190 191)
(191 189)
(190 185)
(184 191)
(192 193)
(193 194)
(194 195)
(195 192)
(194 196)
(196 197)
(197 195)
(196 198)
(198 199)
(199 197)
(198 193)
(192 199)
(200 201)
(201 202)
(202 203)
(203 200)
(202 204)
(204 205)
(205 203)
(204 206)
(206 207)
(207 205)
(206 201)
(200 207)
(208 209)
(209 210)
(210 211)
(211 208)
(210 212)
(212 213)
(213 211)
(212 214)
(214 215)
(215 213)
(214 209)
(208 215)
(216 217)
(217 121)
(120 216)
(126 218)
(218 219)
(219 127)
(218 217)
(216 219)
(220 221)
(221 222)
(222 223)
(223 220)
(222 224)
(224 225)
(225 223)
(224 226)
(226 227)
(227 225)
(226 221)
(220 227)
(228 229)
(229 230)
(230 231)
(231 228)
(230 232)
(232 233)
(233 231)
(232 234)
(234 235)
(235 233)
(234 229)
(228 235)
(236 237)
(237 238)
(238 239)
(239 236)
(238 240)
(240 241)
(241 239)
(240 242)
(242 243)
(243 241)
(242 237)
(236 243)
(244 245)
(245 246)
(246 247)
(247 244)
(246 248)
(248 249)
(249 247)
(248 250)
(250 251)
(251 249)
(250 245)
(244 251)
(252 253)
(253 254)
(254 255)
(255 252)
(254 256)
(256 257)
(257 255)
(256 258)
(258 259)
(259 257)
(258 253)
(252 259)
(260 261)
(261 262)
(262 263)
(263 260)
(262 264)
(264 265)
(265 263)
(264 266)
(266 267)
(267 265)
(266 261)
(260 267)
(268 269)
(269 270)
(270 271)
(271 268)
(272 273)
(273 269)
(268 272)
(274 275)
(275 273)
(272 274)
(270 275)
(274 271)
(59 58)
(57 56)
(58 57)
(56 59)
(97 96)
(98 97)
(99 98)
(96 99)
(137 136)
(138 137)
(136 139)
(139 138)
(152 153)
(154 152)
(155 154)
(153 155)
(2 0)
(1 4)
(5 6)
(7 3)
(0 6)
(1 7)
(10 8)
(12 11)
(14 13)
(9 15)
(11 15)
(9 12)
(18 16)
(20 19)
(22 21)
(17 23)
(19 23)
(17 20)
(26 24)
(28 27)
(30 29)
(25 31)
(27 31)
(25 28)
(34 32)
(33 36)
(37 38)
(39 35)
(32 38)
(33 39)
(42 40)
(44 43)
(46 45)
(41 47)
(40 45)
(41 44)
(50 48)
(52 51)
(54 53)
(49 55)
(49 52)
(53 56)
(56 51)
(57 53)
(55 57)
(48 58)
(58 55)
(58 51)
(51 59)
(57 60)
(58 61)
(59 62)
(56 63)
(61 63)
(66 64)
(68 67)
(70 69)
(65 71)
(71 67)
(70 66)
(74 72)
(76 75)
(78 77)
(73 79)
(75 79)
(73 76)
(82 80)
(84 83)
(86 85)
(81 87)
(87 83)
(86 82)
(90 88)
(92 91)
(94 93)
(89 95)
(89 92)
(93 96)
(96 91)
(96 95)
(95 97)
(88 98)
(97 88)
(99 88)
(91 99)
(99 100)
(96 101)
(97 102)
(98 103)
(102 100)
(106 104)
(105 108)
(109 110)
(111 107)
(104 110)
(105 111)
(114 112)
(116 115)
(118 117)
(113 119)
(119 115)
(118 114)
(122 120)
(124 123)
(126 125)
(121 127)
(125 120)
(124 121)
(130 128)
(132 131)
(134 133)
(129 135)
(129 132)
(135 136)
(136 133)
(137 135)
(128 137)
(137 131)
(131 138)
(133 139)
(139 131)
(136 140)
(137 141)
(138 142)
(139 143)
(141 143)
(146 144)
(148 147)
(150 149)
(145 151)
(145 148)
(149 152)
(153 149)
(154 149)
(151 154)
(155 151)
(144 155)
(155 147)
(147 153)
(153 156)
(152 157)
(154 158)
(155 159)
(157 159)
(162 160)
(164 163)
(166 165)
(161 167)
(167 163)
(166 162)
(170 168)
(172 171)
(174 173)
(169 175)
(175 171)
(174 170)
(178 176)
(180 179)
(182 181)
(177 183)
(183 179)
(182 178)
(186 184)
(188 187)
(190 189)
(185 191)
(187 191)
(185 188)
(194 192)
(196 195)
(198 197)
(193 199)
(195 199)
(193 196)
(202 200)
(204 203)
(206 205)
(201 207)
(203 207)
(201 204)
(210 208)
(212 211)
(214 213)
(209 215)
(211 215)
(209 212)
(121 216)
(126 120)
(218 127)
(217 219)
(216 127)
(217 126)
(222 220)
(224 223)
(226 225)
(221 227)
(220 225)
(221 224)
(230 228)
(232 231)
(234 233)
(229 235)
(228 233)
(229 232)
(238 236)
(240 239)
(242 241)
(237 243)
(239 243)
(237 240)
(246 244)
(248 247)
(250 249)
(245 251)
(247 251)
(245 248)
(254 252)
(256 255)
(258 257)
(253 259)
(255 259)
(258 254)
(262 260)
(264 263)
(266 265)
(261 267)
(263 267)
(266 262)
(270 268)
(269 272)
(273 274)
(275 271)
(268 274)
(269 275)
(120 121)
(126 127)
(126 121)
(120 127)
)

// * * * * * * * * * * * * * * * * * * * * * * * * * * * * * * * * * * * * * //


// ************************************************************************* //
