/*--------------------------------*- C++ -*----------------------------------*\
| =========                 |                                                 |
| \\      /  F ield         | OpenFOAM: The Open Source CFD Toolbox           |
|  \\    /   O peration     | Version:  2112                                  |
|   \\  /    A nd           | Website:  www.openfoam.com                      |
|    \\/     M anipulation  |                                                 |
\*---------------------------------------------------------------------------*/
FoamFile
{
    version     2.0;
    format      ascii;
    arch        "LSB;label=32;scalar=64";
    class       featureEdgeMesh;
    location    "constant/triSurface";
    object      inlet.eMesh;
}
// * * * * * * * * * * * * * * * * * * * * * * * * * * * * * * * * * * * * * //


// points:

1524
(
(0.458 0.783 0.1565)
(0.456455 0.783 0.125539)
(0.454913 0.783 0.125654)
(0.45338 0.783 0.125846)
(0.451858 0.783 0.126115)
(0.450351 0.783 0.126459)
(0.448863 0.783 0.126877)
(0.447397 0.783 0.12737)
(0.445959 0.783 0.127934)
(0.44455 0.783 0.12857)
(0.443174 0.783 0.129275)
(0.441836 0.783 0.130048)
(0.440537 0.783 0.130887)
(0.439282 0.783 0.131789)
(0.438074 0.783 0.132753)
(0.436915 0.783 0.133775)
(0.435808 0.783 0.134855)
(0.434757 0.783 0.135988)
(0.433763 0.783 0.137172)
(0.43283 0.783 0.138404)
(0.431959 0.783 0.139681)
(0.431153 0.783 0.141)
(0.430414 0.783 0.142357)
(0.429743 0.783 0.14375)
(0.429143 0.783 0.145174)
(0.428614 0.783 0.146627)
(0.428159 0.783 0.148104)
(0.427777 0.783 0.149602)
(0.427471 0.783 0.151117)
(0.427241 0.783 0.152645)
(0.427087 0.783 0.154183)
(0.42701 0.783 0.155727)
(0.42701 0.783 0.157273)
(0.427087 0.783 0.158817)
(0.427241 0.783 0.160355)
(0.427471 0.783 0.161883)
(0.427777 0.783 0.163398)
(0.428159 0.783 0.164896)
(0.428614 0.783 0.166373)
(0.429143 0.783 0.167826)
(0.429743 0.783 0.16925)
(0.430414 0.783 0.170643)
(0.431153 0.783 0.172)
(0.431959 0.783 0.173319)
(0.43283 0.783 0.174596)
(0.433763 0.783 0.175828)
(0.434757 0.783 0.177012)
(0.435808 0.783 0.178145)
(0.436915 0.783 0.179225)
(0.438074 0.783 0.180247)
(0.439282 0.783 0.181211)
(0.440537 0.783 0.182113)
(0.441836 0.783 0.182952)
(0.443174 0.783 0.183725)
(0.44455 0.783 0.18443)
(0.445959 0.783 0.185066)
(0.447397 0.783 0.18563)
(0.448863 0.783 0.186123)
(0.450351 0.783 0.186541)
(0.451858 0.783 0.186885)
(0.45338 0.783 0.187154)
(0.454913 0.783 0.187346)
(0.456455 0.783 0.187461)
(0.458 0.783 0.1875)
(0.459545 0.783 0.187461)
(0.461087 0.783 0.187346)
(0.46262 0.783 0.187154)
(0.464143 0.783 0.186885)
(0.465649 0.783 0.186541)
(0.467137 0.783 0.186123)
(0.468603 0.783 0.18563)
(0.470041 0.783 0.185066)
(0.47145 0.783 0.18443)
(0.472826 0.783 0.183725)
(0.474165 0.783 0.182952)
(0.475463 0.783 0.182113)
(0.476718 0.783 0.181211)
(0.477926 0.783 0.180247)
(0.479085 0.783 0.179225)
(0.480192 0.783 0.178145)
(0.481243 0.783 0.177012)
(0.482237 0.783 0.175828)
(0.48317 0.783 0.174596)
(0.484041 0.783 0.173319)
(0.484847 0.783 0.172)
(0.485586 0.783 0.170643)
(0.486257 0.783 0.16925)
(0.486857 0.783 0.167826)
(0.487386 0.783 0.166373)
(0.487841 0.783 0.164896)
(0.488223 0.783 0.163398)
(0.488529 0.783 0.161883)
(0.488759 0.783 0.160355)
(0.488913 0.783 0.158817)
(0.48899 0.783 0.157273)
(0.48899 0.783 0.155727)
(0.488913 0.783 0.154183)
(0.488759 0.783 0.152645)
(0.488529 0.783 0.151117)
(0.488223 0.783 0.149602)
(0.487841 0.783 0.148104)
(0.487386 0.783 0.146627)
(0.486857 0.783 0.145174)
(0.486257 0.783 0.14375)
(0.485586 0.783 0.142357)
(0.484847 0.783 0.141)
(0.484041 0.783 0.139681)
(0.48317 0.783 0.138404)
(0.482237 0.783 0.137172)
(0.481243 0.783 0.135988)
(0.480192 0.783 0.134855)
(0.479085 0.783 0.133775)
(0.477926 0.783 0.132753)
(0.476718 0.783 0.131789)
(0.475463 0.783 0.130887)
(0.474165 0.783 0.130048)
(0.472826 0.783 0.129275)
(0.47145 0.783 0.12857)
(0.470041 0.783 0.127934)
(0.468603 0.783 0.12737)
(0.467137 0.783 0.126877)
(0.465649 0.783 0.126459)
(0.464143 0.783 0.126115)
(0.46262 0.783 0.125846)
(0.461087 0.783 0.125654)
(0.459545 0.783 0.125539)
(0.458 0.783 0.1255)
(0.458 0.283 0.1255)
(0.459545 0.283 0.125539)
(0.461087 0.283 0.125654)
(0.46262 0.283 0.125846)
(0.464143 0.283 0.126115)
(0.465649 0.283 0.126459)
(0.467137 0.283 0.126877)
(0.468603 0.283 0.12737)
(0.470041 0.283 0.127934)
(0.47145 0.283 0.12857)
(0.472826 0.283 0.129275)
(0.474165 0.283 0.130048)
(0.475463 0.283 0.130887)
(0.476718 0.283 0.131789)
(0.477926 0.283 0.132753)
(0.479085 0.283 0.133775)
(0.480192 0.283 0.134855)
(0.481243 0.283 0.135988)
(0.482237 0.283 0.137172)
(0.48317 0.283 0.138404)
(0.484041 0.283 0.139681)
(0.484847 0.283 0.141)
(0.485586 0.283 0.142357)
(0.486257 0.283 0.14375)
(0.486857 0.283 0.145174)
(0.487386 0.283 0.146627)
(0.487841 0.283 0.148104)
(0.488223 0.283 0.149602)
(0.488529 0.283 0.151117)
(0.488759 0.283 0.152645)
(0.488913 0.283 0.154183)
(0.48899 0.283 0.155727)
(0.48899 0.283 0.157273)
(0.488913 0.283 0.158817)
(0.488759 0.283 0.160355)
(0.488529 0.283 0.161883)
(0.488223 0.283 0.163398)
(0.487841 0.283 0.164896)
(0.487386 0.283 0.166373)
(0.486857 0.283 0.167826)
(0.486257 0.283 0.16925)
(0.485586 0.283 0.170643)
(0.484847 0.283 0.172)
(0.484041 0.283 0.173319)
(0.48317 0.283 0.174596)
(0.482237 0.283 0.175828)
(0.481243 0.283 0.177012)
(0.480192 0.283 0.178145)
(0.479085 0.283 0.179225)
(0.477926 0.283 0.180247)
(0.476718 0.283 0.181211)
(0.475463 0.283 0.182113)
(0.474165 0.283 0.182952)
(0.472826 0.283 0.183725)
(0.47145 0.283 0.18443)
(0.470041 0.283 0.185066)
(0.468603 0.283 0.18563)
(0.467137 0.283 0.186123)
(0.465649 0.283 0.186541)
(0.464143 0.283 0.186885)
(0.46262 0.283 0.187154)
(0.461087 0.283 0.187346)
(0.459545 0.283 0.187461)
(0.458 0.283 0.1875)
(0.456455 0.283 0.187461)
(0.454913 0.283 0.187346)
(0.45338 0.283 0.187154)
(0.451858 0.283 0.186885)
(0.450351 0.283 0.186541)
(0.448863 0.283 0.186123)
(0.447397 0.283 0.18563)
(0.445959 0.283 0.185066)
(0.44455 0.283 0.18443)
(0.443174 0.283 0.183725)
(0.441836 0.283 0.182952)
(0.440537 0.283 0.182113)
(0.439282 0.283 0.181211)
(0.438074 0.283 0.180247)
(0.436915 0.283 0.179225)
(0.435808 0.283 0.178145)
(0.434757 0.283 0.177012)
(0.433763 0.283 0.175828)
(0.43283 0.283 0.174596)
(0.431959 0.283 0.173319)
(0.431153 0.283 0.172)
(0.430414 0.283 0.170643)
(0.429743 0.283 0.16925)
(0.429143 0.283 0.167826)
(0.428614 0.283 0.166373)
(0.428159 0.283 0.164896)
(0.427777 0.283 0.163398)
(0.427471 0.283 0.161883)
(0.427241 0.283 0.160355)
(0.427087 0.283 0.158817)
(0.42701 0.283 0.157273)
(0.42701 0.283 0.155727)
(0.427087 0.283 0.154183)
(0.427241 0.283 0.152645)
(0.427471 0.283 0.151117)
(0.427777 0.283 0.149602)
(0.428159 0.283 0.148104)
(0.428614 0.283 0.146627)
(0.429143 0.283 0.145174)
(0.429743 0.283 0.14375)
(0.430414 0.283 0.142357)
(0.431153 0.283 0.141)
(0.431959 0.283 0.139681)
(0.43283 0.283 0.138404)
(0.433763 0.283 0.137172)
(0.434757 0.283 0.135988)
(0.435808 0.283 0.134855)
(0.436915 0.283 0.133775)
(0.438074 0.283 0.132753)
(0.439282 0.283 0.131789)
(0.440537 0.283 0.130887)
(0.441836 0.283 0.130048)
(0.443174 0.283 0.129275)
(0.44455 0.283 0.12857)
(0.445959 0.283 0.127934)
(0.447397 0.283 0.12737)
(0.448863 0.283 0.126877)
(0.450351 0.283 0.126459)
(0.451858 0.283 0.126115)
(0.45338 0.283 0.125846)
(0.454913 0.283 0.125654)
(0.456455 0.283 0.125539)
(0.458 0.283 0.1565)
(0.53 0.783 0.1565)
(0.528455 0.783 0.125539)
(0.526913 0.783 0.125654)
(0.52538 0.783 0.125846)
(0.523858 0.783 0.126115)
(0.522351 0.783 0.126459)
(0.520863 0.783 0.126877)
(0.519397 0.783 0.12737)
(0.517959 0.783 0.127934)
(0.51655 0.783 0.12857)
(0.515174 0.783 0.129275)
(0.513836 0.783 0.130048)
(0.512537 0.783 0.130887)
(0.511282 0.783 0.131789)
(0.510074 0.783 0.132753)
(0.508915 0.783 0.133775)
(0.507808 0.783 0.134855)
(0.506757 0.783 0.135988)
(0.505763 0.783 0.137172)
(0.50483 0.783 0.138404)
(0.503959 0.783 0.139681)
(0.503153 0.783 0.141)
(0.502414 0.783 0.142357)
(0.501743 0.783 0.14375)
(0.501143 0.783 0.145174)
(0.500614 0.783 0.146627)
(0.500159 0.783 0.148104)
(0.499777 0.783 0.149602)
(0.499471 0.783 0.151117)
(0.499241 0.783 0.152645)
(0.499087 0.783 0.154183)
(0.49901 0.783 0.155727)
(0.49901 0.783 0.157273)
(0.499087 0.783 0.158817)
(0.499241 0.783 0.160355)
(0.499471 0.783 0.161883)
(0.499777 0.783 0.163398)
(0.500159 0.783 0.164896)
(0.500614 0.783 0.166373)
(0.501143 0.783 0.167826)
(0.501743 0.783 0.16925)
(0.502414 0.783 0.170643)
(0.503153 0.783 0.172)
(0.503959 0.783 0.173319)
(0.50483 0.783 0.174596)
(0.505763 0.783 0.175828)
(0.506757 0.783 0.177012)
(0.507808 0.783 0.178145)
(0.508915 0.783 0.179225)
(0.510074 0.783 0.180247)
(0.511282 0.783 0.181211)
(0.512537 0.783 0.182113)
(0.513836 0.783 0.182952)
(0.515174 0.783 0.183725)
(0.51655 0.783 0.18443)
(0.517959 0.783 0.185066)
(0.519397 0.783 0.18563)
(0.520863 0.783 0.186123)
(0.522351 0.783 0.186541)
(0.523858 0.783 0.186885)
(0.52538 0.783 0.187154)
(0.526913 0.783 0.187346)
(0.528455 0.783 0.187461)
(0.53 0.783 0.1875)
(0.531545 0.783 0.187461)
(0.533087 0.783 0.187346)
(0.53462 0.783 0.187154)
(0.536143 0.783 0.186885)
(0.53765 0.783 0.186541)
(0.539137 0.783 0.186123)
(0.540603 0.783 0.18563)
(0.542042 0.783 0.185066)
(0.54345 0.783 0.18443)
(0.544826 0.783 0.183725)
(0.546165 0.783 0.182952)
(0.547463 0.783 0.182113)
(0.548718 0.783 0.181211)
(0.549926 0.783 0.180247)
(0.551085 0.783 0.179225)
(0.552192 0.783 0.178145)
(0.553243 0.783 0.177012)
(0.554237 0.783 0.175828)
(0.55517 0.783 0.174596)
(0.556041 0.783 0.173319)
(0.556847 0.783 0.172)
(0.557586 0.783 0.170643)
(0.558257 0.783 0.16925)
(0.558857 0.783 0.167826)
(0.559386 0.783 0.166373)
(0.559841 0.783 0.164896)
(0.560223 0.783 0.163398)
(0.560529 0.783 0.161883)
(0.560759 0.783 0.160355)
(0.560913 0.783 0.158817)
(0.56099 0.783 0.157273)
(0.56099 0.783 0.155727)
(0.560913 0.783 0.154183)
(0.560759 0.783 0.152645)
(0.560529 0.783 0.151117)
(0.560223 0.783 0.149602)
(0.559841 0.783 0.148104)
(0.559386 0.783 0.146627)
(0.558857 0.783 0.145174)
(0.558257 0.783 0.14375)
(0.557586 0.783 0.142357)
(0.556847 0.783 0.141)
(0.556041 0.783 0.139681)
(0.55517 0.783 0.138404)
(0.554237 0.783 0.137172)
(0.553243 0.783 0.135988)
(0.552192 0.783 0.134855)
(0.551085 0.783 0.133775)
(0.549926 0.783 0.132753)
(0.548718 0.783 0.131789)
(0.547463 0.783 0.130887)
(0.546165 0.783 0.130048)
(0.544826 0.783 0.129275)
(0.54345 0.783 0.12857)
(0.542042 0.783 0.127934)
(0.540603 0.783 0.12737)
(0.539137 0.783 0.126877)
(0.53765 0.783 0.126459)
(0.536143 0.783 0.126115)
(0.53462 0.783 0.125846)
(0.533087 0.783 0.125654)
(0.531545 0.783 0.125539)
(0.53 0.783 0.1255)
(0.53 0.283 0.1255)
(0.531545 0.283 0.125539)
(0.533087 0.283 0.125654)
(0.53462 0.283 0.125846)
(0.536143 0.283 0.126115)
(0.53765 0.283 0.126459)
(0.539137 0.283 0.126877)
(0.540603 0.283 0.12737)
(0.542042 0.283 0.127934)
(0.54345 0.283 0.12857)
(0.544826 0.283 0.129275)
(0.546165 0.283 0.130048)
(0.547463 0.283 0.130887)
(0.548718 0.283 0.131789)
(0.549926 0.283 0.132753)
(0.551085 0.283 0.133775)
(0.552192 0.283 0.134855)
(0.553243 0.283 0.135988)
(0.554237 0.283 0.137172)
(0.55517 0.283 0.138404)
(0.556041 0.283 0.139681)
(0.556847 0.283 0.141)
(0.557586 0.283 0.142357)
(0.558257 0.283 0.14375)
(0.558857 0.283 0.145174)
(0.559386 0.283 0.146627)
(0.559841 0.283 0.148104)
(0.560223 0.283 0.149602)
(0.560529 0.283 0.151117)
(0.560759 0.283 0.152645)
(0.560913 0.283 0.154183)
(0.56099 0.283 0.155727)
(0.56099 0.283 0.157273)
(0.560913 0.283 0.158817)
(0.560759 0.283 0.160355)
(0.560529 0.283 0.161883)
(0.560223 0.283 0.163398)
(0.559841 0.283 0.164896)
(0.559386 0.283 0.166373)
(0.558857 0.283 0.167826)
(0.558257 0.283 0.16925)
(0.557586 0.283 0.170643)
(0.556847 0.283 0.172)
(0.556041 0.283 0.173319)
(0.55517 0.283 0.174596)
(0.554237 0.283 0.175828)
(0.553243 0.283 0.177012)
(0.552192 0.283 0.178145)
(0.551085 0.283 0.179225)
(0.549926 0.283 0.180247)
(0.548718 0.283 0.181211)
(0.547463 0.283 0.182113)
(0.546165 0.283 0.182952)
(0.544826 0.283 0.183725)
(0.54345 0.283 0.18443)
(0.542042 0.283 0.185066)
(0.540603 0.283 0.18563)
(0.539137 0.283 0.186123)
(0.53765 0.283 0.186541)
(0.536143 0.283 0.186885)
(0.53462 0.283 0.187154)
(0.533087 0.283 0.187346)
(0.531545 0.283 0.187461)
(0.53 0.283 0.1875)
(0.528455 0.283 0.187461)
(0.526913 0.283 0.187346)
(0.52538 0.283 0.187154)
(0.523858 0.283 0.186885)
(0.522351 0.283 0.186541)
(0.520863 0.283 0.186123)
(0.519397 0.283 0.18563)
(0.517959 0.283 0.185066)
(0.51655 0.283 0.18443)
(0.515174 0.283 0.183725)
(0.513836 0.283 0.182952)
(0.512537 0.283 0.182113)
(0.511282 0.283 0.181211)
(0.510074 0.283 0.180247)
(0.508915 0.283 0.179225)
(0.507808 0.283 0.178145)
(0.506757 0.283 0.177012)
(0.505763 0.283 0.175828)
(0.50483 0.283 0.174596)
(0.503959 0.283 0.173319)
(0.503153 0.283 0.172)
(0.502414 0.283 0.170643)
(0.501743 0.283 0.16925)
(0.501143 0.283 0.167826)
(0.500614 0.283 0.166373)
(0.500159 0.283 0.164896)
(0.499777 0.283 0.163398)
(0.499471 0.283 0.161883)
(0.499241 0.283 0.160355)
(0.499087 0.283 0.158817)
(0.49901 0.283 0.157273)
(0.49901 0.283 0.155727)
(0.499087 0.283 0.154183)
(0.499241 0.283 0.152645)
(0.499471 0.283 0.151117)
(0.499777 0.283 0.149602)
(0.500159 0.283 0.148104)
(0.500614 0.283 0.146627)
(0.501143 0.283 0.145174)
(0.501743 0.283 0.14375)
(0.502414 0.283 0.142357)
(0.503153 0.283 0.141)
(0.503959 0.283 0.139681)
(0.50483 0.283 0.138404)
(0.505763 0.283 0.137172)
(0.506757 0.283 0.135988)
(0.507808 0.283 0.134855)
(0.508915 0.283 0.133775)
(0.510074 0.283 0.132753)
(0.511282 0.283 0.131789)
(0.512537 0.283 0.130887)
(0.513836 0.283 0.130048)
(0.515174 0.283 0.129275)
(0.51655 0.283 0.12857)
(0.517959 0.283 0.127934)
(0.519397 0.283 0.12737)
(0.520863 0.283 0.126877)
(0.522351 0.283 0.126459)
(0.523858 0.283 0.126115)
(0.52538 0.283 0.125846)
(0.526913 0.283 0.125654)
(0.528455 0.283 0.125539)
(0.53 0.283 0.1565)
(0.602 0.783 0.1565)
(0.600455 0.783 0.125539)
(0.598913 0.783 0.125654)
(0.59738 0.783 0.125846)
(0.595857 0.783 0.126115)
(0.594351 0.783 0.126459)
(0.592863 0.783 0.126877)
(0.591397 0.783 0.12737)
(0.589959 0.783 0.127934)
(0.58855 0.783 0.12857)
(0.587174 0.783 0.129275)
(0.585836 0.783 0.130048)
(0.584537 0.783 0.130887)
(0.583282 0.783 0.131789)
(0.582074 0.783 0.132753)
(0.580915 0.783 0.133775)
(0.579808 0.783 0.134855)
(0.578757 0.783 0.135988)
(0.577763 0.783 0.137172)
(0.57683 0.783 0.138404)
(0.575959 0.783 0.139681)
(0.575153 0.783 0.141)
(0.574414 0.783 0.142357)
(0.573743 0.783 0.14375)
(0.573143 0.783 0.145174)
(0.572614 0.783 0.146627)
(0.572159 0.783 0.148104)
(0.571777 0.783 0.149602)
(0.571471 0.783 0.151117)
(0.571241 0.783 0.152645)
(0.571087 0.783 0.154183)
(0.57101 0.783 0.155727)
(0.57101 0.783 0.157273)
(0.571087 0.783 0.158817)
(0.571241 0.783 0.160355)
(0.571471 0.783 0.161883)
(0.571777 0.783 0.163398)
(0.572159 0.783 0.164896)
(0.572614 0.783 0.166373)
(0.573143 0.783 0.167826)
(0.573743 0.783 0.16925)
(0.574414 0.783 0.170643)
(0.575153 0.783 0.172)
(0.575959 0.783 0.173319)
(0.57683 0.783 0.174596)
(0.577763 0.783 0.175828)
(0.578757 0.783 0.177012)
(0.579808 0.783 0.178145)
(0.580915 0.783 0.179225)
(0.582074 0.783 0.180247)
(0.583282 0.783 0.181211)
(0.584537 0.783 0.182113)
(0.585836 0.783 0.182952)
(0.587174 0.783 0.183725)
(0.58855 0.783 0.18443)
(0.589959 0.783 0.185066)
(0.591397 0.783 0.18563)
(0.592863 0.783 0.186123)
(0.594351 0.783 0.186541)
(0.595857 0.783 0.186885)
(0.59738 0.783 0.187154)
(0.598913 0.783 0.187346)
(0.600455 0.783 0.187461)
(0.602 0.783 0.1875)
(0.603545 0.783 0.187461)
(0.605087 0.783 0.187346)
(0.60662 0.783 0.187154)
(0.608143 0.783 0.186885)
(0.609649 0.783 0.186541)
(0.611137 0.783 0.186123)
(0.612603 0.783 0.18563)
(0.614042 0.783 0.185066)
(0.61545 0.783 0.18443)
(0.616826 0.783 0.183725)
(0.618165 0.783 0.182952)
(0.619463 0.783 0.182113)
(0.620718 0.783 0.181211)
(0.621926 0.783 0.180247)
(0.623085 0.783 0.179225)
(0.624192 0.783 0.178145)
(0.625243 0.783 0.177012)
(0.626237 0.783 0.175828)
(0.62717 0.783 0.174596)
(0.628041 0.783 0.173319)
(0.628847 0.783 0.172)
(0.629586 0.783 0.170643)
(0.630257 0.783 0.16925)
(0.630857 0.783 0.167826)
(0.631386 0.783 0.166373)
(0.631841 0.783 0.164896)
(0.632223 0.783 0.163398)
(0.632529 0.783 0.161883)
(0.632759 0.783 0.160355)
(0.632913 0.783 0.158817)
(0.63299 0.783 0.157273)
(0.63299 0.783 0.155727)
(0.632913 0.783 0.154183)
(0.632759 0.783 0.152645)
(0.632529 0.783 0.151117)
(0.632223 0.783 0.149602)
(0.631841 0.783 0.148104)
(0.631386 0.783 0.146627)
(0.630857 0.783 0.145174)
(0.630257 0.783 0.14375)
(0.629586 0.783 0.142357)
(0.628847 0.783 0.141)
(0.628041 0.783 0.139681)
(0.62717 0.783 0.138404)
(0.626237 0.783 0.137172)
(0.625243 0.783 0.135988)
(0.624192 0.783 0.134855)
(0.623085 0.783 0.133775)
(0.621926 0.783 0.132753)
(0.620718 0.783 0.131789)
(0.619463 0.783 0.130887)
(0.618165 0.783 0.130048)
(0.616826 0.783 0.129275)
(0.61545 0.783 0.12857)
(0.614042 0.783 0.127934)
(0.612603 0.783 0.12737)
(0.611137 0.783 0.126877)
(0.609649 0.783 0.126459)
(0.608143 0.783 0.126115)
(0.60662 0.783 0.125846)
(0.605087 0.783 0.125654)
(0.603545 0.783 0.125539)
(0.602 0.783 0.1255)
(0.602 0.283 0.1255)
(0.603545 0.283 0.125539)
(0.605087 0.283 0.125654)
(0.60662 0.283 0.125846)
(0.608143 0.283 0.126115)
(0.609649 0.283 0.126459)
(0.611137 0.283 0.126877)
(0.612603 0.283 0.12737)
(0.614042 0.283 0.127934)
(0.61545 0.283 0.12857)
(0.616826 0.283 0.129275)
(0.618165 0.283 0.130048)
(0.619463 0.283 0.130887)
(0.620718 0.283 0.131789)
(0.621926 0.283 0.132753)
(0.623085 0.283 0.133775)
(0.624192 0.283 0.134855)
(0.625243 0.283 0.135988)
(0.626237 0.283 0.137172)
(0.62717 0.283 0.138404)
(0.628041 0.283 0.139681)
(0.628847 0.283 0.141)
(0.629586 0.283 0.142357)
(0.630257 0.283 0.14375)
(0.630857 0.283 0.145174)
(0.631386 0.283 0.146627)
(0.631841 0.283 0.148104)
(0.632223 0.283 0.149602)
(0.632529 0.283 0.151117)
(0.632759 0.283 0.152645)
(0.632913 0.283 0.154183)
(0.63299 0.283 0.155727)
(0.63299 0.283 0.157273)
(0.632913 0.283 0.158817)
(0.632759 0.283 0.160355)
(0.632529 0.283 0.161883)
(0.632223 0.283 0.163398)
(0.631841 0.283 0.164896)
(0.631386 0.283 0.166373)
(0.630857 0.283 0.167826)
(0.630257 0.283 0.16925)
(0.629586 0.283 0.170643)
(0.628847 0.283 0.172)
(0.628041 0.283 0.173319)
(0.62717 0.283 0.174596)
(0.626237 0.283 0.175828)
(0.625243 0.283 0.177012)
(0.624192 0.283 0.178145)
(0.623085 0.283 0.179225)
(0.621926 0.283 0.180247)
(0.620718 0.283 0.181211)
(0.619463 0.283 0.182113)
(0.618165 0.283 0.182952)
(0.616826 0.283 0.183725)
(0.61545 0.283 0.18443)
(0.614042 0.283 0.185066)
(0.612603 0.283 0.18563)
(0.611137 0.283 0.186123)
(0.609649 0.283 0.186541)
(0.608143 0.283 0.186885)
(0.60662 0.283 0.187154)
(0.605087 0.283 0.187346)
(0.603545 0.283 0.187461)
(0.602 0.283 0.1875)
(0.600455 0.283 0.187461)
(0.598913 0.283 0.187346)
(0.59738 0.283 0.187154)
(0.595857 0.283 0.186885)
(0.594351 0.283 0.186541)
(0.592863 0.283 0.186123)
(0.591397 0.283 0.18563)
(0.589959 0.283 0.185066)
(0.58855 0.283 0.18443)
(0.587174 0.283 0.183725)
(0.585836 0.283 0.182952)
(0.584537 0.283 0.182113)
(0.583282 0.283 0.181211)
(0.582074 0.283 0.180247)
(0.580915 0.283 0.179225)
(0.579808 0.283 0.178145)
(0.578757 0.283 0.177012)
(0.577763 0.283 0.175828)
(0.57683 0.283 0.174596)
(0.575959 0.283 0.173319)
(0.575153 0.283 0.172)
(0.574414 0.283 0.170643)
(0.573743 0.283 0.16925)
(0.573143 0.283 0.167826)
(0.572614 0.283 0.166373)
(0.572159 0.283 0.164896)
(0.571777 0.283 0.163398)
(0.571471 0.283 0.161883)
(0.571241 0.283 0.160355)
(0.571087 0.283 0.158817)
(0.57101 0.283 0.157273)
(0.57101 0.283 0.155727)
(0.571087 0.283 0.154183)
(0.571241 0.283 0.152645)
(0.571471 0.283 0.151117)
(0.571777 0.283 0.149602)
(0.572159 0.283 0.148104)
(0.572614 0.283 0.146627)
(0.573143 0.283 0.145174)
(0.573743 0.283 0.14375)
(0.574414 0.283 0.142357)
(0.575153 0.283 0.141)
(0.575959 0.283 0.139681)
(0.57683 0.283 0.138404)
(0.577763 0.283 0.137172)
(0.578757 0.283 0.135988)
(0.579808 0.283 0.134855)
(0.580915 0.283 0.133775)
(0.582074 0.283 0.132753)
(0.583282 0.283 0.131789)
(0.584537 0.283 0.130887)
(0.585836 0.283 0.130048)
(0.587174 0.283 0.129275)
(0.58855 0.283 0.12857)
(0.589959 0.283 0.127934)
(0.591397 0.283 0.12737)
(0.592863 0.283 0.126877)
(0.594351 0.283 0.126459)
(0.595857 0.283 0.126115)
(0.59738 0.283 0.125846)
(0.598913 0.283 0.125654)
(0.600455 0.283 0.125539)
(0.602 0.283 0.1565)
(0.674 0.783 0.1565)
(0.672455 0.783 0.125539)
(0.670913 0.783 0.125654)
(0.66938 0.783 0.125846)
(0.667858 0.783 0.126115)
(0.666351 0.783 0.126459)
(0.664863 0.783 0.126877)
(0.663397 0.783 0.12737)
(0.661959 0.783 0.127934)
(0.66055 0.783 0.12857)
(0.659174 0.783 0.129275)
(0.657836 0.783 0.130048)
(0.656537 0.783 0.130887)
(0.655282 0.783 0.131789)
(0.654074 0.783 0.132753)
(0.652915 0.783 0.133775)
(0.651808 0.783 0.134855)
(0.650757 0.783 0.135988)
(0.649763 0.783 0.137172)
(0.64883 0.783 0.138404)
(0.647959 0.783 0.139681)
(0.647153 0.783 0.141)
(0.646414 0.783 0.142357)
(0.645743 0.783 0.14375)
(0.645143 0.783 0.145174)
(0.644614 0.783 0.146627)
(0.644159 0.783 0.148104)
(0.643777 0.783 0.149602)
(0.643471 0.783 0.151117)
(0.643241 0.783 0.152645)
(0.643087 0.783 0.154183)
(0.64301 0.783 0.155727)
(0.64301 0.783 0.157273)
(0.643087 0.783 0.158817)
(0.643241 0.783 0.160355)
(0.643471 0.783 0.161883)
(0.643777 0.783 0.163398)
(0.644159 0.783 0.164896)
(0.644614 0.783 0.166373)
(0.645143 0.783 0.167826)
(0.645743 0.783 0.16925)
(0.646414 0.783 0.170643)
(0.647153 0.783 0.172)
(0.647959 0.783 0.173319)
(0.64883 0.783 0.174596)
(0.649763 0.783 0.175828)
(0.650757 0.783 0.177012)
(0.651808 0.783 0.178145)
(0.652915 0.783 0.179225)
(0.654074 0.783 0.180247)
(0.655282 0.783 0.181211)
(0.656537 0.783 0.182113)
(0.657836 0.783 0.182952)
(0.659174 0.783 0.183725)
(0.66055 0.783 0.18443)
(0.661959 0.783 0.185066)
(0.663397 0.783 0.18563)
(0.664863 0.783 0.186123)
(0.666351 0.783 0.186541)
(0.667858 0.783 0.186885)
(0.66938 0.783 0.187154)
(0.670913 0.783 0.187346)
(0.672455 0.783 0.187461)
(0.674 0.783 0.1875)
(0.675545 0.783 0.187461)
(0.677087 0.783 0.187346)
(0.67862 0.783 0.187154)
(0.680143 0.783 0.186885)
(0.68165 0.783 0.186541)
(0.683137 0.783 0.186123)
(0.684603 0.783 0.18563)
(0.686042 0.783 0.185066)
(0.68745 0.783 0.18443)
(0.688826 0.783 0.183725)
(0.690165 0.783 0.182952)
(0.691463 0.783 0.182113)
(0.692718 0.783 0.181211)
(0.693926 0.783 0.180247)
(0.695085 0.783 0.179225)
(0.696192 0.783 0.178145)
(0.697243 0.783 0.177012)
(0.698237 0.783 0.175828)
(0.69917 0.783 0.174596)
(0.700041 0.783 0.173319)
(0.700847 0.783 0.172)
(0.701586 0.783 0.170643)
(0.702257 0.783 0.16925)
(0.702857 0.783 0.167826)
(0.703386 0.783 0.166373)
(0.703841 0.783 0.164896)
(0.704223 0.783 0.163398)
(0.704529 0.783 0.161883)
(0.704759 0.783 0.160355)
(0.704913 0.783 0.158817)
(0.70499 0.783 0.157273)
(0.70499 0.783 0.155727)
(0.704913 0.783 0.154183)
(0.704759 0.783 0.152645)
(0.704529 0.783 0.151117)
(0.704223 0.783 0.149602)
(0.703841 0.783 0.148104)
(0.703386 0.783 0.146627)
(0.702857 0.783 0.145174)
(0.702257 0.783 0.14375)
(0.701586 0.783 0.142357)
(0.700847 0.783 0.141)
(0.700041 0.783 0.139681)
(0.69917 0.783 0.138404)
(0.698237 0.783 0.137172)
(0.697243 0.783 0.135988)
(0.696192 0.783 0.134855)
(0.695085 0.783 0.133775)
(0.693926 0.783 0.132753)
(0.692718 0.783 0.131789)
(0.691463 0.783 0.130887)
(0.690165 0.783 0.130048)
(0.688826 0.783 0.129275)
(0.68745 0.783 0.12857)
(0.686042 0.783 0.127934)
(0.684603 0.783 0.12737)
(0.683137 0.783 0.126877)
(0.68165 0.783 0.126459)
(0.680143 0.783 0.126115)
(0.67862 0.783 0.125846)
(0.677087 0.783 0.125654)
(0.675545 0.783 0.125539)
(0.674 0.783 0.1255)
(0.674 0.283 0.1255)
(0.675545 0.283 0.125539)
(0.677087 0.283 0.125654)
(0.67862 0.283 0.125846)
(0.680143 0.283 0.126115)
(0.68165 0.283 0.126459)
(0.683137 0.283 0.126877)
(0.684603 0.283 0.12737)
(0.686042 0.283 0.127934)
(0.68745 0.283 0.12857)
(0.688826 0.283 0.129275)
(0.690165 0.283 0.130048)
(0.691463 0.283 0.130887)
(0.692718 0.283 0.131789)
(0.693926 0.283 0.132753)
(0.695085 0.283 0.133775)
(0.696192 0.283 0.134855)
(0.697243 0.283 0.135988)
(0.698237 0.283 0.137172)
(0.69917 0.283 0.138404)
(0.700041 0.283 0.139681)
(0.700847 0.283 0.141)
(0.701586 0.283 0.142357)
(0.702257 0.283 0.14375)
(0.702857 0.283 0.145174)
(0.703386 0.283 0.146627)
(0.703841 0.283 0.148104)
(0.704223 0.283 0.149602)
(0.704529 0.283 0.151117)
(0.704759 0.283 0.152645)
(0.704913 0.283 0.154183)
(0.70499 0.283 0.155727)
(0.70499 0.283 0.157273)
(0.704913 0.283 0.158817)
(0.704759 0.283 0.160355)
(0.704529 0.283 0.161883)
(0.704223 0.283 0.163398)
(0.703841 0.283 0.164896)
(0.703386 0.283 0.166373)
(0.702857 0.283 0.167826)
(0.702257 0.283 0.16925)
(0.701586 0.283 0.170643)
(0.700847 0.283 0.172)
(0.700041 0.283 0.173319)
(0.69917 0.283 0.174596)
(0.698237 0.283 0.175828)
(0.697243 0.283 0.177012)
(0.696192 0.283 0.178145)
(0.695085 0.283 0.179225)
(0.693926 0.283 0.180247)
(0.692718 0.283 0.181211)
(0.691463 0.283 0.182113)
(0.690165 0.283 0.182952)
(0.688826 0.283 0.183725)
(0.68745 0.283 0.18443)
(0.686042 0.283 0.185066)
(0.684603 0.283 0.18563)
(0.683137 0.283 0.186123)
(0.68165 0.283 0.186541)
(0.680143 0.283 0.186885)
(0.67862 0.283 0.187154)
(0.677087 0.283 0.187346)
(0.675545 0.283 0.187461)
(0.674 0.283 0.1875)
(0.672455 0.283 0.187461)
(0.670913 0.283 0.187346)
(0.66938 0.283 0.187154)
(0.667858 0.283 0.186885)
(0.666351 0.283 0.186541)
(0.664863 0.283 0.186123)
(0.663397 0.283 0.18563)
(0.661959 0.283 0.185066)
(0.66055 0.283 0.18443)
(0.659174 0.283 0.183725)
(0.657836 0.283 0.182952)
(0.656537 0.283 0.182113)
(0.655282 0.283 0.181211)
(0.654074 0.283 0.180247)
(0.652915 0.283 0.179225)
(0.651808 0.283 0.178145)
(0.650757 0.283 0.177012)
(0.649763 0.283 0.175828)
(0.64883 0.283 0.174596)
(0.647959 0.283 0.173319)
(0.647153 0.283 0.172)
(0.646414 0.283 0.170643)
(0.645743 0.283 0.16925)
(0.645143 0.283 0.167826)
(0.644614 0.283 0.166373)
(0.644159 0.283 0.164896)
(0.643777 0.283 0.163398)
(0.643471 0.283 0.161883)
(0.643241 0.283 0.160355)
(0.643087 0.283 0.158817)
(0.64301 0.283 0.157273)
(0.64301 0.283 0.155727)
(0.643087 0.283 0.154183)
(0.643241 0.283 0.152645)
(0.643471 0.283 0.151117)
(0.643777 0.283 0.149602)
(0.644159 0.283 0.148104)
(0.644614 0.283 0.146627)
(0.645143 0.283 0.145174)
(0.645743 0.283 0.14375)
(0.646414 0.283 0.142357)
(0.647153 0.283 0.141)
(0.647959 0.283 0.139681)
(0.64883 0.283 0.138404)
(0.649763 0.283 0.137172)
(0.650757 0.283 0.135988)
(0.651808 0.283 0.134855)
(0.652915 0.283 0.133775)
(0.654074 0.283 0.132753)
(0.655282 0.283 0.131789)
(0.656537 0.283 0.130887)
(0.657836 0.283 0.130048)
(0.659174 0.283 0.129275)
(0.66055 0.283 0.12857)
(0.661959 0.283 0.127934)
(0.663397 0.283 0.12737)
(0.664863 0.283 0.126877)
(0.666351 0.283 0.126459)
(0.667858 0.283 0.126115)
(0.66938 0.283 0.125846)
(0.670913 0.283 0.125654)
(0.672455 0.283 0.125539)
(0.674 0.283 0.1565)
(0.386 0.783 0.1565)
(0.384455 0.783 0.125539)
(0.382913 0.783 0.125654)
(0.38138 0.783 0.125846)
(0.379858 0.783 0.126115)
(0.378351 0.783 0.126459)
(0.376863 0.783 0.126877)
(0.375397 0.783 0.12737)
(0.373959 0.783 0.127934)
(0.37255 0.783 0.12857)
(0.371174 0.783 0.129275)
(0.369836 0.783 0.130048)
(0.368537 0.783 0.130887)
(0.367282 0.783 0.131789)
(0.366074 0.783 0.132753)
(0.364915 0.783 0.133775)
(0.363808 0.783 0.134855)
(0.362757 0.783 0.135988)
(0.361763 0.783 0.137172)
(0.36083 0.783 0.138404)
(0.359959 0.783 0.139681)
(0.359153 0.783 0.141)
(0.358414 0.783 0.142357)
(0.357743 0.783 0.14375)
(0.357143 0.783 0.145174)
(0.356614 0.783 0.146627)
(0.356159 0.783 0.148104)
(0.355777 0.783 0.149602)
(0.355471 0.783 0.151117)
(0.355241 0.783 0.152645)
(0.355087 0.783 0.154183)
(0.35501 0.783 0.155727)
(0.35501 0.783 0.157273)
(0.355087 0.783 0.158817)
(0.355241 0.783 0.160355)
(0.355471 0.783 0.161883)
(0.355777 0.783 0.163398)
(0.356159 0.783 0.164896)
(0.356614 0.783 0.166373)
(0.357143 0.783 0.167826)
(0.357743 0.783 0.16925)
(0.358414 0.783 0.170643)
(0.359153 0.783 0.172)
(0.359959 0.783 0.173319)
(0.36083 0.783 0.174596)
(0.361763 0.783 0.175828)
(0.362757 0.783 0.177012)
(0.363808 0.783 0.178145)
(0.364915 0.783 0.179225)
(0.366074 0.783 0.180247)
(0.367282 0.783 0.181211)
(0.368537 0.783 0.182113)
(0.369836 0.783 0.182952)
(0.371174 0.783 0.183725)
(0.37255 0.783 0.18443)
(0.373959 0.783 0.185066)
(0.375397 0.783 0.18563)
(0.376863 0.783 0.186123)
(0.378351 0.783 0.186541)
(0.379858 0.783 0.186885)
(0.38138 0.783 0.187154)
(0.382913 0.783 0.187346)
(0.384455 0.783 0.187461)
(0.386 0.783 0.1875)
(0.387545 0.783 0.187461)
(0.389087 0.783 0.187346)
(0.39062 0.783 0.187154)
(0.392143 0.783 0.186885)
(0.393649 0.783 0.186541)
(0.395137 0.783 0.186123)
(0.396603 0.783 0.18563)
(0.398041 0.783 0.185066)
(0.39945 0.783 0.18443)
(0.400826 0.783 0.183725)
(0.402165 0.783 0.182952)
(0.403463 0.783 0.182113)
(0.404718 0.783 0.181211)
(0.405926 0.783 0.180247)
(0.407085 0.783 0.179225)
(0.408192 0.783 0.178145)
(0.409243 0.783 0.177012)
(0.410237 0.783 0.175828)
(0.41117 0.783 0.174596)
(0.412041 0.783 0.173319)
(0.412847 0.783 0.172)
(0.413586 0.783 0.170643)
(0.414257 0.783 0.16925)
(0.414857 0.783 0.167826)
(0.415386 0.783 0.166373)
(0.415841 0.783 0.164896)
(0.416223 0.783 0.163398)
(0.416529 0.783 0.161883)
(0.416759 0.783 0.160355)
(0.416913 0.783 0.158817)
(0.41699 0.783 0.157273)
(0.41699 0.783 0.155727)
(0.416913 0.783 0.154183)
(0.416759 0.783 0.152645)
(0.416529 0.783 0.151117)
(0.416223 0.783 0.149602)
(0.415841 0.783 0.148104)
(0.415386 0.783 0.146627)
(0.414857 0.783 0.145174)
(0.414257 0.783 0.14375)
(0.413586 0.783 0.142357)
(0.412847 0.783 0.141)
(0.412041 0.783 0.139681)
(0.41117 0.783 0.138404)
(0.410237 0.783 0.137172)
(0.409243 0.783 0.135988)
(0.408192 0.783 0.134855)
(0.407085 0.783 0.133775)
(0.405926 0.783 0.132753)
(0.404718 0.783 0.131789)
(0.403463 0.783 0.130887)
(0.402165 0.783 0.130048)
(0.400826 0.783 0.129275)
(0.39945 0.783 0.12857)
(0.398041 0.783 0.127934)
(0.396603 0.783 0.12737)
(0.395137 0.783 0.126877)
(0.393649 0.783 0.126459)
(0.392143 0.783 0.126115)
(0.39062 0.783 0.125846)