/*--------------------------------*- C++ -*----------------------------------*\
| =========                 |                                                 |
| \\      /  F ield         | OpenFOAM: The Open Source CFD Toolbox           |
|  \\    /   O peration     | Version:  2112                                  |
|   \\  /    A nd           | Website:  www.openfoam.com                      |
|    \\/     M anipulation  |                                                 |
\*---------------------------------------------------------------------------*/
FoamFile
{
    version     2.0;
    format      ascii;
    arch        "LSB;label=32;scalar=64";
    class       extendedFeatureEdgeMesh;
    location    "constant/extendedFeatureEdgeMesh";
    object      frame.extendedFeatureEdgeMesh;
}
// * * * * * * * * * * * * * * * * * * * * * * * * * * * * * * * * * * * * * //

// points

276
(
(0.735 0.318 0.195)
(0.737 0.318 0.195)
(0.737 0.318 0.295)
(0.735 0.318 0.295)
(0.735 0.738 0.195)
(0.737 0.738 0.195)
(0.735 0.738 0.295)
(0.737 0.738 0.295)
(0.732 0.317 1.085)
(0.732 0.317 1.055)
(0.762 0.317 1.055)
(0.762 0.317 1.085)
(0.762 0.74 1.055)
(0.762 0.74 1.085)
(0.732 0.74 1.055)
(0.732 0.74 1.085)
(0.310926 0.288019 1.332)
(0.310926 0.288019 1.302)
(0.732926 0.288019 1.302)
(0.732926 0.288019 1.332)
(0.732926 0.318019 1.302)
(0.732926 0.318019 1.332)
(0.310926 0.318019 1.302)
(0.310926 0.318019 1.332)
(0.310926 0.288019 0.125)
(0.310926 0.288019 0.095)
(0.732926 0.288019 0.095)
(0.732926 0.288019 0.125)
(0.732926 0.318019 0.095)
(0.732926 0.318019 0.125)
(0.310926 0.318019 0.095)
(0.310926 0.318019 0.125)
(0.732 0.741 0.195)
(0.732 0.743 0.195)
(0.732 0.743 0.295)
(0.732 0.741 0.295)
(0.312 0.741 0.195)
(0.312 0.743 0.195)
(0.312 0.741 0.295)
(0.312 0.743 0.295)
(0.282 0.317 1.332)
(0.282 0.317 1.302)
(0.312 0.317 1.302)
(0.312 0.317 1.332)
(0.312 0.74 1.302)
(0.312 0.74 1.332)
(0.282 0.74 1.302)
(0.282 0.74 1.332)
(0.337 0.713 0.005)
(0.337 0.713 0)
(0.337 0.793 0)
(0.337 0.793 0.005)
(0.257 0.793 0)
(0.257 0.793 0.005)
(0.257 0.713 0)
(0.257 0.713 0.005)
(0.282 0.768 0.005)
(0.282 0.738 0.005)
(0.312 0.738 0.005)
(0.312 0.768 0.005)
(0.282 0.768 1.365)
(0.282 0.738 1.365)
(0.312 0.738 1.365)
(0.312 0.768 1.365)
(0.310926 0.738019 0.125)
(0.310926 0.738019 0.095)
(0.732926 0.738019 0.095)
(0.732926 0.738019 0.125)
(0.732926 0.768019 0.095)
(0.732926 0.768019 0.125)
(0.310926 0.768019 0.095)
(0.310926 0.768019 0.125)
(0.732 0.317 0.325)
(0.732 0.317 0.295)
(0.762 0.317 0.295)
(0.762 0.317 0.325)
(0.762 0.74 0.295)
(0.762 0.74 0.325)
(0.732 0.74 0.295)
(0.732 0.74 0.325)
(0.310926 0.738019 0.565)
(0.310926 0.738019 0.535)
(0.732926 0.738019 0.535)
(0.732926 0.738019 0.565)
(0.732926 0.768019 0.535)
(0.732926 0.768019 0.565)
(0.310926 0.768019 0.535)
(0.310926 0.768019 0.565)
(0.337 0.263 0.005)
(0.337 0.263 0)
(0.337 0.343 0)
(0.337 0.343 0.005)
(0.257 0.343 0)
(0.257 0.343 0.005)
(0.257 0.263 0)
(0.257 0.263 0.005)
(0.282096 0.317873 0.005)
(0.282096 0.287873 0.005)
(0.312096 0.287873 0.005)
(0.312096 0.317873 0.005)
(0.312096 0.287873 1.365)
(0.312096 0.317873 1.365)
(0.282096 0.317873 1.365)
(0.282096 0.287873 1.365)
(0.732 0.313 0.195)
(0.732 0.315 0.195)
(0.732 0.315 0.295)
(0.732 0.313 0.295)
(0.312 0.313 0.195)
(0.312 0.315 0.195)
(0.312 0.313 0.295)
(0.312 0.315 0.295)
(0.310926 0.738019 1.332)
(0.310926 0.738019 1.302)
(0.732926 0.738019 1.302)
(0.732926 0.738019 1.332)
(0.732926 0.768019 1.302)
(0.732926 0.768019 1.332)
(0.310926 0.768019 1.302)
(0.310926 0.768019 1.332)
(0.312 0.317 0.325)
(0.312 0.317 0.295)
(0.342 0.317 0.295)
(0.342 0.317 0.325)
(0.342 0.74 0.295)
(0.342 0.74 0.325)
(0.312 0.74 0.295)
(0.312 0.74 0.325)
(0.787 0.713 0.005)
(0.787 0.713 0)
(0.787 0.793 0)
(0.787 0.793 0.005)
(0.707 0.793 0)
(0.707 0.793 0.005)
(0.707 0.713 0)
(0.707 0.713 0.005)
(0.732 0.738 0.005)
(0.762 0.738 0.005)
(0.762 0.768 0.005)
(0.732 0.768 0.005)
(0.732 0.768 1.365)
(0.732 0.738 1.365)
(0.762 0.738 1.365)
(0.762 0.768 1.365)
(0.787 0.263 0.005)
(0.787 0.263 0)
(0.787 0.343 0)
(0.787 0.343 0.005)
(0.707 0.343 0)
(0.707 0.343 0.005)
(0.707 0.263 0)
(0.707 0.263 0.005)
(0.732 0.318 0.005)
(0.762 0.318 0.005)
(0.732 0.288 0.005)
(0.762 0.288 0.005)
(0.762 0.288 1.365)
(0.762 0.318 1.365)
(0.732 0.318 1.365)
(0.732 0.288 1.365)
(0.310926 0.738019 0.325)
(0.310926 0.738019 0.295)
(0.732926 0.738019 0.295)
(0.732926 0.738019 0.325)
(0.732926 0.768019 0.295)
(0.732926 0.768019 0.325)
(0.310926 0.768019 0.295)
(0.310926 0.768019 0.325)
(0.310926 0.738019 0.852)
(0.310926 0.738019 0.822)
(0.732926 0.738019 0.822)
(0.732926 0.738019 0.852)
(0.732926 0.768019 0.822)
(0.732926 0.768019 0.852)
(0.310926 0.768019 0.822)
(0.310926 0.768019 0.852)
(0.310926 0.738019 1.085)
(0.310926 0.738019 1.055)
(0.732926 0.738019 1.055)
(0.732926 0.738019 1.085)
(0.732926 0.768019 1.055)
(0.732926 0.768019 1.085)
(0.310926 0.768019 1.055)
(0.310926 0.768019 1.085)
(0.310926 0.288019 0.325)
(0.310926 0.288019 0.295)
(0.732926 0.288019 0.295)
(0.732926 0.288019 0.325)
(0.732926 0.318019 0.295)
(0.732926 0.318019 0.325)
(0.310926 0.318019 0.295)
(0.310926 0.318019 0.325)
(0.310926 0.288019 0.565)
(0.310926 0.288019 0.535)
(0.732926 0.288019 0.535)
(0.732926 0.288019 0.565)
(0.732926 0.318019 0.535)
(0.732926 0.318019 0.565)
(0.310926 0.318019 0.535)
(0.310926 0.318019 0.565)
(0.310926 0.288019 0.852)
(0.310926 0.288019 0.822)
(0.732926 0.288019 0.822)
(0.732926 0.288019 0.852)
(0.732926 0.318019 0.822)
(0.732926 0.318019 0.852)
(0.310926 0.318019 0.822)
(0.310926 0.318019 0.852)
(0.310926 0.288019 1.085)
(0.310926 0.288019 1.055)
(0.732926 0.288019 1.055)
(0.732926 0.288019 1.085)
(0.732926 0.318019 1.055)
(0.732926 0.318019 1.085)
(0.310926 0.318019 1.055)
(0.310926 0.318019 1.085)
(0.282 0.317 0.325)
(0.282 0.317 0.295)
(0.282 0.74 0.295)
(0.282 0.74 0.325)
(0.282 0.317 0.565)
(0.282 0.317 0.535)
(0.312 0.317 0.535)
(0.312 0.317 0.565)
(0.312 0.74 0.535)
(0.312 0.74 0.565)
(0.282 0.74 0.535)
(0.282 0.74 0.565)
(0.282 0.317 1.085)
(0.282 0.317 1.055)
(0.312 0.317 1.055)
(0.312 0.317 1.085)
(0.312 0.74 1.055)
(0.312 0.74 1.085)
(0.282 0.74 1.055)
(0.282 0.74 1.085)
(0.732 0.317 0.565)
(0.732 0.317 0.535)
(0.762 0.317 0.535)
(0.762 0.317 0.565)
(0.762 0.74 0.535)
(0.762 0.74 0.565)
(0.732 0.74 0.535)
(0.732 0.74 0.565)
(0.732 0.317 1.332)
(0.732 0.317 1.302)
(0.762 0.317 1.302)
(0.762 0.317 1.332)
(0.762 0.74 1.302)
(0.762 0.74 1.332)
(0.732 0.74 1.302)
(0.732 0.74 1.332)
(0.692 0.318 0.852)
(0.692 0.318 0.822)
(0.692 0.738 0.822)
(0.692 0.738 0.852)
(0.689 0.738 0.822)
(0.689 0.738 0.852)
(0.689 0.318 0.822)
(0.689 0.318 0.852)
(0.355 0.318 0.852)
(0.355 0.318 0.822)
(0.355 0.738 0.822)
(0.355 0.738 0.852)
(0.352 0.738 0.822)
(0.352 0.738 0.852)
(0.352 0.318 0.822)
(0.352 0.318 0.852)
(0.307 0.318 0.195)
(0.309 0.318 0.195)
(0.309 0.318 0.295)
(0.307 0.318 0.295)
(0.307 0.738 0.195)
(0.309 0.738 0.195)
(0.307 0.738 0.295)
(0.309 0.738 0.295)
)

// edges

650
(
(0 1)
(1 2)
(2 3)
(3 0)
(4 5)
(5 1)
(0 4)
(6 7)
(7 5)
(4 6)
(2 7)
(6 3)
(8 9)
(9 10)
(10 11)
(11 8)
(10 12)
(12 13)
(13 11)
(12 14)
(14 15)
(15 13)
(14 9)
(8 15)
(16 17)
(17 18)
(18 19)
(19 16)
(18 20)
(20 21)
(21 19)
(20 22)
(22 23)
(23 21)
(22 17)
(16 23)
(24 25)
(25 26)
(26 27)
(27 24)
(26 28)
(28 29)
(29 27)
(28 30)
(30 31)
(31 29)
(30 25)
(24 31)
(32 33)
(33 34)
(34 35)
(35 32)
(36 37)
(37 33)
(32 36)
(38 39)
(39 37)
(36 38)
(34 39)
(38 35)
(40 41)
(41 42)
(42 43)
(43 40)
(42 44)
(44 45)
(45 43)
(44 46)
(46 47)
(47 45)
(46 41)
(40 47)
(48 49)
(49 50)
(50 51)
(51 48)
(50 52)
(52 53)
(53 51)
(52 54)
(54 55)
(55 53)
(54 49)
(48 55)
(60 56)
(57 61)
(61 60)
(58 62)
(62 61)
(59 63)
(63 62)
(60 63)
(64 65)
(65 66)
(66 67)
(67 64)
(66 68)
(68 69)
(69 67)
(68 70)
(70 71)
(71 69)
(70 65)
(64 71)
(72 73)
(73 74)
(74 75)
(75 72)
(74 76)
(76 77)
(77 75)
(76 78)
(78 79)
(79 77)
(78 73)
(72 79)
(80 81)
(81 82)
(82 83)
(83 80)
(82 84)
(84 85)
(85 83)
(84 86)
(86 87)
(87 85)
(86 81)
(80 87)
(88 89)
(89 90)
(90 91)
(91 88)
(90 92)
(92 93)
(93 91)
(92 94)
(94 95)
(95 93)
(94 89)
(88 95)
(100 98)
(99 101)
(101 100)
(96 102)
(102 101)
(97 103)
(103 102)
(100 103)
(104 105)
(105 106)
(106 107)
(107 104)
(108 109)
(109 105)
(104 108)
(110 111)
(111 109)
(108 110)
(106 111)
(110 107)
(112 113)
(113 114)
(114 115)
(115 112)
(114 116)
(116 117)
(117 115)
(116 118)
(118 119)
(119 117)
(118 113)
(112 119)
(121 122)
(122 123)
(123 120)
(122 124)
(124 125)
(125 123)
(124 126)
(127 125)
(128 129)
(129 130)
(130 131)
(131 128)
(130 132)
(132 133)
(133 131)
(132 134)
(134 135)
(135 133)
(134 129)
(128 135)
(140 139)
(136 141)
(141 140)
(137 142)
(142 141)
(138 143)
(143 142)
(140 143)
(144 145)
(145 146)
(146 147)
(147 144)
(146 148)
(148 149)
(149 147)
(148 150)
(150 151)
(151 149)
(150 145)
(144 151)
(156 155)
(153 157)
(157 156)
(152 158)
(158 157)
(154 159)
(159 158)
(156 159)
(160 161)
(161 162)
(162 163)
(163 160)
(162 164)
(164 165)
(165 163)
(164 166)
(166 167)
(167 165)
(166 161)
(160 167)
(168 169)
(169 170)
(170 171)
(171 168)
(170 172)
(172 173)
(173 171)
(172 174)
(174 175)
(175 173)
(174 169)
(168 175)
(176 177)
(177 178)
(178 179)
(179 176)
(178 180)
(180 181)
(181 179)
(180 182)
(182 183)
(183 181)
(182 177)
(176 183)
(184 185)
(185 186)
(186 187)
(187 184)
(186 188)
(188 189)
(189 187)
(188 190)
(190 191)
(191 189)
(190 185)
(184 191)
(192 193)
(193 194)
(194 195)
(195 192)
(194 196)
(196 197)
(197 195)
(196 198)
(198 199)
(199 197)
(198 193)
(192 199)
(200 201)
(201 202)
(202 203)
(203 200)
(202 204)
(204 205)
(205 203)
(204 206)
(206 207)
(207 205)
(206 201)
(200 207)
(208 209)
(209 210)
(210 211)
(211 208)
(210 212)
(212 213)
(213 211)
(212 214)
(214 215)
(215 213)
(214 209)
(208 215)
(216 217)
(217 121)
(120 216)
(126 218)
(218 219)
(219 127)
(218 217)
(216 219)
(220 221)
(221 222)
(222 223)
(223 220)
(222 224)
(224 225)
(225 223)
(224 226)
(226 227)
(227 225)
(226 221)
(220 227)
(228 229)
(229 230)
(230 231)
(231 228)
(230 232)
(232 233)
(233 231)
(232 234)
(234 235)
(235 233)
(234 229)
(228 235)
(236 237)
(237 238)
(238 239)
(239 236)
(238 240)
(240 241)
(241 239)
(240 242)
(242 243)
(243 241)
(242 237)
(236 243)
(244 245)
(245 246)
(246 247)
(247 244)
(246 248)
(248 249)
(249 247)
(248 250)
(250 251)
(251 249)
(250 245)
(244 251)
(252 253)
(253 254)
(254 255)
(255 252)
(254 256)
(256 257)
(257 255)
(256 258)
(258 259)
(259 257)
(258 253)
(252 259)
(260 261)
(261 262)
(262 263)
(263 260)
(262 264)
(264 265)
(265 263)
(264 266)
(266 267)
(267 265)
(266 261)
(260 267)
(268 269)
(269 270)
(270 271)
(271 268)
(272 273)
(273 269)
(268 272)
(274 275)
(275 273)
(272 274)
(270 275)
(274 271)
(59 58)
(57 56)
(58 57)
(56 59)
(97 96)
(98 97)
(99 98)
(96 99)
(137 136)
(138 137)
(136 139)
(139 138)
(152 153)
(154 152)
(155 154)
(153 155)
(2 0)
(1 4)
(5 6)
(7 3)
(0 6)
(1 7)
(10 8)
(12 11)
(14 13)
(9 15)
(11 15)
(9 12)
(18 16)
(20 19)
(22 21)
(17 23)
(19 23)
(17 20)
(26 24)
(28 27)
(30 29)
(25 31)
(27 31)
(25 28)
(34 32)
(33 36)
(37 38)
(39 35)
(32 38)
(33 39)
(42 40)
(44 43)
(46 45)
(41 47)
(40 45)
(41 44)
(50 48)
(52 51)
(54 53)
(49 55)
(49 52)
(53 56)
(56 51)
(57 53)
(55 57)
(48 58)
(58 55)
(58 51)
(51 59)
(57 60)
(58 61)
(59 62)
(56 63)
(61 63)
(66 64)
(68 67)
(70 69)
(65 71)
(71 67)
(70 66)
(74 72)
(76 75)
(78 77)
(73 79)
(75 79)
(73 76)
(82 80)
(84 83)
(86 85)
(81 87)
(87 83)
(86 82)
(90 88)
(92 91)
(94 93)
(89 95)
(89 92)
(93 96)
(96 91)
(96 95)
(95 97)
(88 98)
(97 88)
(99 88)
(91 99)
(99 100)
(96 101)
(97 102)
(98 103)
(102 100)
(106 104)
(105 108)
(109 110)
(111 107)
(104 110)
(105 111)
(114 112)
(116 115)
(118 117)
(113 119)
(119 115)
(118 114)
(122 120)
(124 123)
(126 125)
(121 127)
(125 120)
(124 121)
(130 128)
(132 131)
(134 133)
(129 135)
(129 132)
(135 136)
(136 133)
(137 135)
(128 137)
(137 131)
(131 138)
(133 139)
(139 131)
(136 140)
(137 141)
(138 142)
(139 143)
(141 143)
(146 144)
(148 147)
(150 149)
(145 151)
(145 148)
(149 152)
(153 149)
(154 149)
(151 154)
(155 151)
(144 155)
(155 147)
(147 153)
(153 156)
(152 157)
(154 158)
(155 159)
(157 159)
(162 160)
(164 163)
(166 165)
(161 167)
(167 163)
(166 162)
(170 168)
(172 171)
(174 173)
(169 175)
(175 171)
(174 170)
(178 176)
(180 179)
(182 181)
(177 183)
(183 179)
(182 178)
(186 184)
(188 187)
(190 189)
(185 191)
(187 191)
(185 188)
(194 192)
(196 195)
(198 197)
(193 199)
(195 199)
(193 196)
(202 200)
(204 203)
(206 205)
(201 207)
(203 207)
(201 204)
(210 208)
(212 211)
(214 213)
(209 215)
(211 215)
(209 212)
(121 216)
(126 120)
(218 127)
(217 219)
(216 127)
(217 126)
(222 220)
(224 223)
(226 225)
(221 227)
(220 225)
(221 224)
(230 228)
(232 231)
(234 233)
(229 235)
(228 233)
(229 232)
(238 236)
(240 239)
(242 241)
(237 243)
(239 243)
(237 240)
(246 244)
(248 247)
(250 249)
(245 251)
(247 251)
(245 248)
(254 252)
(256 255)
(258 257)
(253 259)
(255 259)
(258 254)
(262 260)
(264 263)
(266 265)
(261 267)
(263 267)
(266 262)
(270 268)
(269 272)
(273 274)
(275 271)
(268 274)
(269 275)
(120 121)
(126 127)
(126 121)
(120 127)
)

// concaveStart mixedStart nonFeatureStart
0 0 276
// internalStart flatStart openStart multipleStart
396 412 646 646
// normals

436
(
(0 -1 0)
(0 -1 0)
(-1 0 0)
(1 0 0)
(0 1 0)
(0 1 0)
(-1 0 -0)
(1 0 -0)
(0 -0 -1)
(0 0 -1)
(0 0 1)
(0 0 1)
(0 -1 0)
(0 0 -1)
(1 0 0)
(-0 -1 0)
(0 0 1)
(-1 0 0)
(0 0 -1)
(0 1 0)
(1 0 0)
(-1 0 -0)
(-0 1 0)
(0 0 1)
(0 -1 0)
(-1 0 0)
(0 -0 -1)
(0 -1 0)
(1 0 0)
(0 0 1)
(1 0 -0)
(0 1 0)
(0 -0 1)
(0 0 -1)
(0 1 0)
(-1 0 -0)
(0 -1 0)
(-1 0 0)
(0 -0 -1)
(0 -1 0)
(1 0 0)
(0 0 1)
(1 0 -0)
(0 1 0)
(0 -0 1)
(0 0 -1)
(0 1 0)
(-1 0 -0)
(0 -1 0)
(-1 0 0)
(0 -0 -1)
(0 -1 0)
(1 0 0)
(0 0 1)
(1 0 -0)
(0 1 0)
(0 -0 1)
(0 0 -1)
(0 1 0)
(-1 0 -0)
(1 0 0)
(0 -0 -1)
(-0 1 0)
(1 0 0)
(0 -0 1)
(0 -1 0)
(0 0 -1)
(-1 0 0)
(0 1 0)
(0 -1 0)
(-1 0 0)
(0 0 1)
(0 -1 0)
(-1 0 0)
(0 -0 -1)
(0 -1 0)
(1 0 0)
(0 0 1)
(1 0 -0)
(0 1 0)
(0 0 -1)
(0 1 0)
(-1 0 -0)
(0 0 1)
(1 0 0)
(0 -1 0)
(0 0 -1)
(1 0 -0)
(0 1 0)
(-0 0 1)
(0 1 0)
(-1 0 -0)
(0 0 1)
(0 0 -1)
(-1 0 0)
(0 -1 0)
(0 0 1)
(0 0 1)
(-1 0 -0)
(0 1 0)
(-1 0 0)
(0 -1 0)
(0 0 1)
(0 -1 0)
(1 0 0)
(0 0 1)
(1 0 -0)
(0 1 0)
(0 -1 0)
(-1 0 0)
(0 0 -1)
(0 -1 0)
(1 0 0)
(0 0 1)
(0 0 -1)
(1 0 -0)
(0 1 0)
(0 -0 1)
(0 1 0)
(-1 0 -0)
(0 -1 0)
(-1 0 0)
(0 -0 -1)
(0 -1 0)
(1 0 0)
(0 0 1)
(1 0 -0)
(0 1 0)
(0 -0 1)
(0 0 -1)
(0 1 0)
(-1 0 -0)
(0 -1 0)
(-1 0 0)
(0 0 -1)
(0 -1 0)
(1 0 0)
(0 0 1)
(0 0 -1)
(1 0 -0)
(0 1 0)
(0 -0 1)
(0 1 0)
(-1 0 -0)
(1 0 0)
(0 -1 0)
(0 0 -1)
(1 0 -0)
(0 1 0)
(0 -0 1)
(0 1 0)
(-1 0 -0)
(0 0 1)
(0 0 -1)
(-1 0 0)
(0 -1 0)
(0 0 1)
(0 0 1)
(1 0 0)
(0 -1 0)
(1 0 -0)
(0 1 0)
(0 -0 1)
(0 1 0)
(-1 0 -0)
(-1 0 0)
(0 -1 0)
(0 0 1)
(1 0 0)
(0 -0 -1)
(-0 1 0)
(1 0 0)
(0 -0 1)
(0 -1 0)
(0 0 -1)
(-1 0 0)
(0 1 0)
(0 -1 0)
(-1 0 0)
(0 0 1)
(0 -1 0)
(-1 0 0)
(0 0 -1)
(0 -1 0)
(1 0 0)
(0 0 1)
(0 0 -1)
(1 0 -0)
(0 1 0)
(0 -0 1)
(0 1 0)
(-1 0 -0)
(0 -0 -1)
(0 -1 0)
(1 0 0)
(0 0 1)
(1 0 -0)
(0 1 0)
(1 0 0)
(0 -1 0)
(0 0 -1)
(1 0 -0)
(0 1 0)
(-0 0 1)
(0 1 0)
(-1 0 -0)
(0 0 1)
(0 0 -1)
(-1 0 0)
(0 -1 0)
(0 0 1)
(0 0 1)
(-1 0 -0)
(0 1 0)
(-1 0 0)
(0 -1 0)
(0 0 1)
(0 -1 0)
(1 0 0)
(0 0 1)
(1 0 -0)
(0 1 0)
(1 0 0)
(0 -1 0)
(0 0 -1)
(1 0 -0)
(0 1 0)
(-0 0 1)
(0 1 0)
(-1 0 -0)
(0 -0 1)
(0 0 -1)
(-1 0 0)
(0 -1 0)
(0 0 1)
(0 0 1)
(1 0 0)
(0 -1 0)
(1 0 -0)
(0 1 0)
(0 0 1)
(0 1 0)
(-1 0 -0)
(0 0 1)
(-1 0 0)
(0 -1 0)
(0 -1 0)
(-1 0 0)
(0 0 -1)
(0 -1 0)
(1 0 0)
(0 0 1)
(0 0 -1)
(1 0 -0)
(0 1 0)
(0 -0 1)
(0 1 0)
(-1 0 -0)
(0 -1 0)
(-1 0 0)
(0 0 -1)
(0 -1 0)
(1 0 0)
(0 0 1)
(0 0 -1)
(1 0 -0)
(0 1 0)
(0 -0 1)
(0 1 0)
(-1 0 -0)
(0 -1 0)
(-1 0 0)
(0 0 -1)
(0 -1 0)
(1 0 0)
(0 0 1)
(0 0 -1)
(1 0 -0)
(0 1 0)
(0 -0 1)
(0 1 0)
(-1 0 -0)
(0 -1 0)
(-1 0 0)
(0 -0 -1)
(0 -1 0)
(1 0 0)
(0 0 1)
(1 0 -0)
(0 1 0)
(0 -0 1)
(0 0 -1)
(0 1 0)
(-1 0 -0)
(0 -1 0)
(-1 0 0)
(0 -0 -1)
(0 -1 0)
(1 0 0)
(0 0 1)
(1 0 -0)
(0 1 0)
(0 -0 1)
(0 0 -1)
(0 1 0)
(-1 0 -0)
(0 -1 0)
(-1 0 0)
(0 -0 -1)
(0 -1 0)
(1 0 0)
(0 0 1)
(1 0 -0)
(0 1 0)
(0 -0 1)
(0 0 -1)
(0 1 0)
(-1 0 -0)
(0 -1 0)
(-1 0 0)
(0 -0 -1)
(0 -1 0)
(1 0 0)
(0 0 1)
(1 0 -0)
(0 1 0)
(0 -0 1)
(0 0 -1)
(0 1 0)
(-1 0 -0)
(0 -1 0)
(-1 0 0)
(0 0 -1)
(0 1 0)
(-1 0 -0)
(0 0 1)
(0 -1 0)
(-1 0 0)
(0 -0 -1)
(0 -1 0)
(1 0 0)
(0 0 1)
(1 0 -0)
(0 1 0)
(0 0 -1)
(0 1 0)
(-1 0 -0)
(0 0 1)
(0 -1 0)
(-1 0 0)
(0 -0 -1)
(0 -1 0)
(1 0 0)
(0 0 1)
(1 0 -0)
(0 1 0)
(0 0 -1)
(0 1 0)
(-1 0 -0)
(0 0 1)
(0 -1 0)
(-1 0 0)
(0 -0 -1)
(0 -1 0)
(1 0 0)
(0 0 1)
(1 0 -0)
(0 1 0)
(0 -0 1)
(0 0 -1)
(0 1 0)
(-1 0 -0)
(0 -1 0)
(-1 0 0)
(0 -0 -1)
(0 -1 0)
(1 0 0)
(0 0 1)
(1 0 -0)
(0 1 0)
(0 -0 1)
(0 0 -1)
(0 1 0)
(-1 0 -0)
(1 0 0)
(0 -1 0)
(0 -0 -1)
(1 0 -0)
(0 1 0)
(0 0 1)
(0 0 -1)
(0 1 0)
(-1 0 -0)
(0 0 1)
(-1 0 0)
(0 -1 0)
(1 0 0)
(0 -1 0)
(0 -0 -1)
(1 0 -0)
(0 1 0)
(0 0 1)
(0 0 -1)
(0 1 0)
(-1 0 -0)
(0 0 1)
(-1 0 0)
(0 -1 0)
(0 -1 0)
(0 0 -1)
(1 0 0)
(-0 -1 0)
(0 0 1)
(-1 0 0)
(0 0 -1)
(0 1 0)
(1 0 0)
(-1 0 -0)
(-0 1 0)
(0 0 1)
(0 -0 1)
(0 0 1)
(0 0 1)
(0 0 1)
(0 0 1)
(0 0 1)
(0 0 1)
(0 0 1)
(0 0 1)
(0 -0 1)
(0 0 1)
(0 0 1)
(0 0 1)
(0 -0 1)
(0 0 1)
(0 0 1)
)

// normal volume types

436
(
0
0
0
0
0
0
0
0
0
0
0
0
0
0
0
0
0
0
0
0
0
0
0
0
0
0
0
0
0
0
0
0
0
0
0
0
0
0
0
0
0
0
0
0
0
0
0
0
0
0
0
0
0
0
0
0
0
0
0
0
0
0
0
0
0
0
0
0
0
0
0
0
0
0
0
0
0
0
0
0
0
0
0
0
0
0
0
0
0
0
0
0
0
0
0
0
0
0
0
0
0
0
0
0
0
0
0
0
0
0
0
0
0
0
0
0
0
0
0
0
0
0
0
0
0
0
0
0
0
0
0
0
0
0
0
0
0
0
0
0
0
0
0
0
0
0
0
0
0
0
0
0
0
0
0
0
0
0
0
0
0
0
0
0
0
0
0
0
0
0
0
0
0
0
0
0
0
0
0
0
0
0
0
0
0
0
0
0
0
0
0
0
0
0
0
0
0
0
0
0
0
0
0
0
0
0
0
0
0
0
0
0
0
0
0
0
0
0
0
0
0
0
0
0
0
0
0
0
0
0
0
0
0
0
0
0
0
0
0
0
0
0
0
0
0
0
0
0
0
0
0
0
0
0
0
0
0
0
0
0
0
0
0
0
0
0
0
0
0
0
0
0
0
0
0
0
0
0
0
0
0
0
0
0
0
0
0
0
0
0
0
0
0
0
0
0
0
0
0
0
0
0
0
0
0
0
0
0
0
0
0
0
0
0
0
0
0
0
0
0
0
0
0
0
0
0
0
0
0
0
0
0
0
0
0
0
0
0
0
0
0
0
0
0
0
0
0
0
0
0
0
0
0
0
0
0
0
0
0
0
0
0
0
0
0
0
0
0
0
0
0
0
0
0
0
0
0
0
0
0
0
0
0
0
0
0
0
0
0
0
0
0
0
0
0
0
0
0
0
0
0
0
0
0
0
0
0
0
0
0
0
0
0
0
0
0
0
0
0
0
0
0
0
0
0
0
0
0
0
0
0
0
0
0
0
0
)

// normalDirections

650
(
2(1 -1)
2(1 -1)
2(1 -1)
2(1 -1)
2(1 -1)
2(1 -1)
2(1 -1)
2(1 -1)
2(1 -1)
2(1 -1)
2(1 -1)
2(1 -1)
2(1 -1)
2(1 -1)
2(1 -1)
2(1 -1)
2(1 -1)
2(1 -1)
2(1 -1)
2(1 -1)
2(1 -1)
2(1 -1)
2(1 -1)
2(1 -1)
2(1 -1)
2(1 -1)
2(1 -1)
2(1 -1)
2(1 -1)
2(1 -1)
2(1 -1)
2(1 -1)
2(1 -1)
2(1 -1)
2(1 -1)
2(1 -1)
2(1 -1)
2(1 -1)
2(1 -1)
2(1 -1)
2(1 -1)
2(1 -1)
2(1 -1)
2(1 -1)
2(1 -1)
2(1 -1)
2(1 -1)
2(1 -1)
2(1 -1)
2(1 -1)
2(1 -1)
2(1 -1)
2(1 -1)
2(1 -1)
2(1 -1)
2(1 -1)
2(1 -1)
2(1 -1)
2(1 -1)
2(1 -1)
2(1 -1)
2(1 -1)
2(1 -1)
2(1 -1)
2(1 -1)
2(1 -1)
2(1 -1)
2(1 -1)
2(1 -1)
2(1 -1)
2(1 -1)
2(1 -1)
2(1 -1)
2(1 -1)
2(1 -1)
2(1 -1)
2(1 -1)
2(1 -1)
2(1 -1)
2(1 -1)
2(1 -1)
2(1 -1)
2(1 -1)
2(1 -1)
2(1 -1)
2(1 -1)
2(1 -1)
2(1 -1)
2(1 -1)
2(1 -1)
2(1 -1)
2(1 -1)
2(1 -1)
2(1 -1)
2(1 -1)
2(1 -1)
2(1 -1)
2(1 -1)
2(1 -1)
2(1 -1)
2(1 -1)
2(1 -1)
2(1 -1)
2(1 -1)
2(1 -1)
2(1 -1)
2(1 -1)
2(1 -1)
2(1 -1)
2(1 -1)
2(1 -1)
2(1 -1)
2(1 -1)
2(1 -1)
2(1 -1)
2(1 -1)
2(1 -1)
2(1 -1)
2(1 -1)
2(1 -1)
2(1 -1)
2(1 -1)
2(1 -1)
2(1 -1)
2(1 -1)
2(1 -1)
2(1 -1)
2(1 -1)
2(1 -1)
2(1 -1)
2(1 -1)
2(1 -1)
2(1 -1)
2(1 -1)
2(1 -1)
2(1 -1)
2(1 -1)
2(1 -1)
2(1 -1)
2(1 -1)
2(1 -1)
2(1 -1)
2(1 -1)
2(1 -1)
2(1 -1)
2(1 -1)
2(1 -1)
2(1 -1)
2(1 -1)
2(1 -1)
2(1 -1)
2(1 -1)
2(1 -1)
2(1 -1)
2(1 -1)
2(1 -1)
2(1 -1)
2(1 -1)
2(1 -1)
2(1 -1)
2(1 -1)
2(1 -1)
2(1 -1)
2(1 -1)
2(1 -1)
2(1 -1)
2(1 -1)
2(1 -1)
2(1 -1)
2(1 -1)
2(1 -1)
2(1 -1)
2(1 -1)
2(1 -1)
2(1 -1)
2(1 -1)
2(1 -1)
2(1 -1)
2(1 -1)
2(1 -1)
2(1 -1)
2(1 -1)
2(1 -1)
2(1 -1)
2(1 -1)
2(1 -1)
2(1 -1)
2(1 -1)
2(1 -1)
2(1 -1)
2(1 -1)
2(1 -1)
2(1 -1)
2(1 -1)
2(1 -1)
2(1 -1)
2(1 -1)
2(1 -1)
2(1 -1)
2(1 -1)
2(1 -1)
2(1 -1)
2(1 -1)
2(1 -1)
2(1 -1)
2(1 -1)
2(1 -1)
2(1 -1)
2(1 -1)
2(1 -1)
2(1 -1)
2(1 -1)
2(1 -1)
2(1 -1)
2(1 -1)
2(1 -1)
2(1 -1)
2(1 -1)
2(1 -1)
2(1 -1)
2(1 -1)
2(1 -1)
2(1 -1)
2(1 -1)
2(1 -1)
2(1 -1)
2(1 -1)
2(1 -1)
2(1 -1)
2(1 -1)
2(1 -1)
2(1 -1)
2(1 -1)
2(1 -1)
2(1 -1)
2(1 -1)
2(1 -1)
2(1 -1)
2(1 -1)
2(1 -1)
2(1 -1)
2(1 -1)
2(1 -1)
2(1 -1)
2(1 -1)
2(1 -1)
2(1 -1)
2(1 -1)
2(1 -1)
2(1 -1)
2(1 -1)
2(1 -1)
2(1 -1)
2(1 -1)
2(1 -1)
2(1 -1)
2(1 -1)
2(1 -1)
2(1 -1)
2(1 -1)
2(1 -1)
2(1 -1)
2(1 -1)
2(1 -1)
2(1 -1)
2(1 -1)
2(1 -1)
2(1 -1)
2(1 -1)
2(1 -1)
2(1 -1)
2(1 -1)
2(1 -1)
2(1 -1)
2(1 -1)
2(1 -1)
2(1 -1)
2(1 -1)
2(1 -1)
2(1 -1)
2(1 -1)
2(1 -1)
2(1 -1)
2(1 -1)
2(1 -1)
2(1 -1)
2(1 -1)
2(1 -1)
2(1 -1)
2(1 -1)
2(1 -1)
2(1 -1)
2(1 -1)
2(1 -1)
2(1 -1)
2(1 -1)
2(1 -1)
2(1 -1)
2(1 -1)
2(1 -1)
2(1 -1)
2(1 -1)
2(1 -1)
2(1 -1)
2(1 -1)
2(1 -1)
2(1 -1)
2(1 -1)
2(1 -1)
2(1 -1)
2(1 -1)
2(1 -1)
2(1 -1)
2(1 -1)
2(1 -1)
2(1 -1)
2(1 -1)
2(1 -1)
2(1 -1)
2(1 -1)
2(1 -1)
2(1 -1)
2(1 -1)
2(1 -1)
2(1 -1)
2(1 -1)
2(1 -1)
2(1 -1)
2(1 -1)
2(1 -1)
2(1 -1)
2(1 -1)
2(1 -1)
2(1 -1)
2(1 -1)
2(1 -1)
2(1 -1)
2(1 -1)
2(1 -1)
2(1 -1)
2(1 -1)
2(1 -1)
2(1 -1)
2(1 -1)
2(1 -1)
2(1 -1)
2(1 -1)
2(1 -1)
2(1 -1)
2(1 -1)
2(1 -1)
2(1 -1)
2(1 -1)
2(1 -1)
2(1 -1)
2(1 -1)
2(1 -1)
2(1 -1)
2(1 -1)
2(1 -1)
2(1 -1)
2(1 -1)
2(1 -1)
2(1 -1)
2(1 -1)
2(1 -1)
2(1 -1)
2(1 -1)
2(1 -1)
2(1 -1)
2(1 -1)
2(1 -1)
2(1 -1)
2(1 -1)
2(1 -1)
2(1 -1)
2(1 -1)
2(1 -1)
2(1 -1)
2(1 -1)
2(1 -1)
2(1 -1)
2(1 -1)
2(1 -1)
2(1 -1)
2(1 -1)
2(1 -1)
2(1 -1)
2(1 -1)
2(1 -1)
2(1 -1)
2(1 -1)
2(1 -1)
2(1 -1)
2(1 -1)
2(1 -1)
2(1 -1)
2(1 -1)
2(1 -1)
2(1 -1)
2(1 -1)
2(1 -1)
2(1 -1)
2(1 -1)
2(1 -1)
2(1 -1)
2(1 -1)
2(1 -1)
2(1 -1)
2(1 -1)
2(1 -1)
2(1 -1)
2(1 -1)
2(1 -1)
2(1 -1)
2(1 -1)
2(1 -1)
2(1 -1)
2(1 -1)
2(1 -1)
2(1 -1)
2(1 -1)
2(1 -1)
2(1 -1)
2(1 -1)
2(1 -1)
2(1 -1)
2(1 -1)
2(1 -1)
2(1 -1)
2(1 -1)
2(1 -1)
2(1 -1)
2(1 -1)
2(1 -1)
2(1 -1)
2(1 -1)
2(1 -1)
2(1 -1)
2(1 -1)
2(1 -1)
2(1 -1)
2(1 -1)
2(1 -1)
2(1 -1)
2(1 -1)
2(1 -1)
2(1 -1)
2(1 -1)
2(1 -1)
2(1 -1)
2(1 -1)
2(1 -1)
2(1 -1)
2(1 -1)
2(1 -1)
2(1 -1)
2(1 -1)
2(1 -1)
2(1 -1)
2(1 -1)
2(1 -1)
2(1 -1)
2(1 -1)
2(1 -1)
2(1 -1)
2(1 -1)
2(1 -1)
2(1 -1)
2(1 -1)
2(1 -1)
2(1 -1)
2(1 -1)
2(1 -1)
2(1 -1)
2(1 -1)
2(1 -1)
2(1 -1)
2(1 -1)
2(1 -1)
2(1 -1)
2(1 -1)
2(1 -1)
2(1 -1)
2(1 -1)
2(1 -1)
2(1 -1)
2(1 -1)
2(1 -1)
2(1 -1)
2(1 -1)
2(1 -1)
2(1 -1)
2(1 -1)
2(1 -1)
2(1 -1)
2(1 -1)
2(1 -1)
2(1 -1)
2(1 -1)
2(1 -1)
2(1 -1)
2(1 -1)
2(1 -1)
2(1 -1)
2(1 -1)
2(1 -1)
2(1 -1)
2(1 -1)
2(1 -1)
2(1 -1)
2(1 -1)
2(1 -1)
2(1 -1)
2(1 -1)
2(1 -1)
2(1 -1)
2(1 -1)
2(1 -1)
2(1 -1)
2(1 -1)
2(1 -1)
2(1 -1)
2(1 -1)
2(1 -1)
2(1 -1)
2(1 -1)
2(1 -1)
2(1 -1)
2(1 -1)
2(1 -1)
2(1 -1)
2(1 -1)
2(1 -1)
2(1 -1)
2(1 -1)
2(1 -1)
2(1 -1)
2(1 -1)
2(1 -1)
2(1 -1)
2(1 -1)
2(1 -1)
2(1 -1)
2(1 -1)
2(1 -1)
2(1 -1)
2(1 -1)
2(1 -1)
2(1 -1)
2(1 -1)
2(1 -1)
2(1 -1)
2(1 -1)
2(1 -1)
2(1 -1)
2(1 -1)
2(1 -1)
2(1 -1)
2(1 -1)
2(1 -1)
2(1 -1)
2(1 -1)
2(1 -1)
2(1 -1)
2(1 -1)
2(1 -1)
2(1 -1)
2(1 -1)
2(1 -1)
2(1 -1)
2(1 -1)
2(1 -1)
2(1 -1)
2(1 -1)
2(1 -1)
2(1 -1)
2(1 -1)
2(1 -1)
2(1 -1)
2(1 -1)
2(1 -1)
2(1 -1)
2(1 -1)
2(1 -1)
2(1 -1)
2(1 -1)
2(1 -1)
2(1 -1)
2(1 -1)
2(1 -1)
2(1 -1)
2(1 -1)
2(1 -1)
2(1 -1)
2(1 -1)
2(1 -1)
2(1 -1)
2(1 -1)
2(1 -1)
2(1 -1)
2(1 -1)
2(1 -1)
2(1 -1)
2(1 -1)
2(1 -1)
2(1 -1)
2(1 -1)
2(1 -1)
2(1 -1)
2(1 -1)
2(1 -1)
2(1 -1)
2(1 -1)
2(1 -1)
2(1 -1)
2(1 -1)
2(1 -1)
2(1 -1)
2(1 -1)
2(1 -1)
2(1 -1)
2(1 -1)
2(1 -1)
2(1 -1)
2(1 -1)
2(1 -1)
2(1 -1)
2(1 -1)
2(1 -1)
2(1 -1)
2(1 -1)
2(1 -1)
2(1 -1)
2(1 -1)
2(1 -1)
2(1 -1)
2(1 -1)
2(1 -1)
2(1 -1)
2(1 -1)
2(1 -1)
2(1 -1)
2(1 -1)
2(1 -1)
2(1 -1)
4(1 -1 -1 1)
4(1 -1 -1 1)
4(1 -1 1 -1)
4(1 -1 1 -1)
)

// edgeNormals

650
(
2(12 13)
2(12 14)
2(15 16)
2(15 17)
2(18 19)
2(18 20)
2(13 21)
2(22 23)
2(22 20)
2(19 21)
2(16 14)
2(23 17)
2(24 25)
2(24 26)
2(27 28)
2(27 29)
2(28 26)
2(30 31)
2(30 32)
2(31 33)
2(34 35)
2(34 32)
2(35 33)
2(25 29)
2(36 37)
2(36 38)
2(39 40)
2(39 41)
2(40 38)
2(42 43)
2(42 44)
2(43 45)
2(46 47)
2(46 44)
2(47 45)
2(37 41)
2(48 49)
2(48 50)
2(51 52)
2(51 53)
2(52 50)
2(54 55)
2(54 56)
2(55 57)
2(58 59)
2(58 56)
2(59 57)
2(49 53)
2(60 61)
2(60 62)
2(63 64)
2(63 65)
2(66 67)
2(66 68)
2(61 69)
2(70 71)
2(70 68)
2(67 69)
2(64 62)
2(71 65)
2(72 73)
2(72 74)
2(75 76)
2(75 77)
2(76 74)
2(78 79)
2(78 77)
2(79 80)
2(81 82)
2(81 83)
2(82 80)
2(73 83)
2(84 85)
2(84 86)
2(87 88)
2(87 89)
2(88 86)
2(90 91)
2(90 92)
2(91 93)
2(94 95)
2(94 96)
2(95 93)
2(85 97)
2(98 99)
2(100 101)
2(100 102)
2(103 104)
2(103 105)
2(106 107)
2(106 105)
2(99 102)
2(108 109)
2(108 110)
2(111 112)
2(111 113)
2(112 114)
2(115 116)
2(115 117)
2(116 114)
2(118 119)
2(118 117)
2(119 110)
2(109 113)
2(120 121)
2(120 122)
2(123 124)
2(123 125)
2(124 122)
2(126 127)
2(126 128)
2(127 129)
2(130 131)
2(130 128)
2(131 129)
2(121 125)
2(132 133)
2(132 134)
2(135 136)
2(135 137)
2(136 138)
2(139 140)
2(139 141)
2(140 138)
2(142 143)
2(142 141)
2(143 134)
2(133 137)
2(144 145)
2(144 146)
2(147 148)
2(147 149)
2(148 146)
2(150 151)
2(150 152)
2(151 153)
2(154 155)
2(154 156)
2(155 153)
2(145 157)
2(158 159)
2(160 161)
2(160 162)
2(163 164)
2(163 162)
2(165 166)
2(165 167)
2(159 167)
2(168 169)
2(168 170)
2(171 172)
2(171 173)
2(174 175)
2(174 176)
2(169 177)
2(178 179)
2(178 176)
2(175 177)
2(172 170)
2(179 173)
2(180 181)
2(180 182)
2(183 184)
2(183 185)
2(184 186)
2(187 188)
2(187 189)
2(188 186)
2(190 191)
2(190 189)
2(191 182)
2(181 185)
2(0 192)
2(193 194)
2(193 195)
2(194 192)
2(196 197)
2(196 195)
2(197 9)
2(4 11)
2(198 199)
2(198 200)
2(201 202)
2(201 203)
2(202 200)
2(204 205)
2(204 206)
2(205 207)
2(208 209)
2(208 210)
2(209 207)
2(199 211)
2(212 213)
2(214 215)
2(214 216)
2(217 218)
2(217 219)
2(220 221)
2(220 219)
2(213 216)
2(222 223)
2(222 224)
2(225 226)
2(225 227)
2(226 224)
2(228 229)
2(228 230)
2(229 231)
2(232 233)
2(232 234)
2(233 231)
2(223 235)
2(236 237)
2(238 239)
2(238 240)
2(241 242)
2(241 243)
2(244 245)
2(244 243)
2(237 240)
2(246 247)
2(246 248)
2(249 250)
2(249 251)
2(250 252)
2(253 254)
2(253 255)
2(254 252)
2(256 257)
2(256 255)
2(257 248)
2(247 251)
2(258 259)
2(258 260)
2(261 262)
2(261 263)
2(262 264)
2(265 266)
2(265 267)
2(266 264)
2(268 269)
2(268 267)
2(269 260)
2(259 263)
2(270 271)
2(270 272)
2(273 274)
2(273 275)
2(274 276)
2(277 278)
2(277 279)
2(278 276)
2(280 281)
2(280 279)
2(281 272)
2(271 275)
2(282 283)
2(282 284)
2(285 286)
2(285 287)
2(286 284)
2(288 289)
2(288 290)
2(289 291)
2(292 293)
2(292 290)
2(293 291)
2(283 287)
2(294 295)
2(294 296)
2(297 298)
2(297 299)
2(298 296)
2(300 301)
2(300 302)
2(301 303)
2(304 305)
2(304 302)
2(305 303)
2(295 299)
2(306 307)
2(306 308)
2(309 310)
2(309 311)
2(310 308)
2(312 313)
2(312 314)
2(313 315)
2(316 317)
2(316 314)
2(317 315)
2(307 311)
2(318 319)
2(318 320)
2(321 322)
2(321 323)
2(322 320)
2(324 325)
2(324 326)
2(325 327)
2(328 329)
2(328 326)
2(329 327)
2(319 323)
2(330 331)
2(330 8)
2(1 10)
2(5 332)
2(333 334)
2(333 335)
2(334 332)
2(331 335)
2(336 337)
2(336 338)
2(339 340)
2(339 341)
2(340 338)
2(342 343)
2(342 341)
2(343 344)
2(345 346)
2(345 347)
2(346 344)
2(337 347)
2(348 349)
2(348 350)
2(351 352)
2(351 353)
2(352 350)
2(354 355)
2(354 353)
2(355 356)
2(357 358)
2(357 359)
2(358 356)
2(349 359)
2(360 361)
2(360 362)
2(363 364)
2(363 365)
2(364 362)
2(366 367)
2(366 368)
2(367 369)
2(370 371)
2(370 368)
2(371 369)
2(361 365)
2(372 373)
2(372 374)
2(375 376)
2(375 377)
2(376 374)
2(378 379)
2(378 380)
2(379 381)
2(382 383)
2(382 380)
2(383 381)
2(373 377)
2(384 385)
2(384 386)
2(387 388)
2(387 389)
2(388 390)
2(391 392)
2(391 393)
2(392 390)
2(394 395)
2(394 393)
2(395 386)
2(385 389)
2(396 397)
2(396 398)
2(399 400)
2(399 401)
2(400 402)
2(403 404)
2(403 405)
2(404 402)
2(406 407)
2(406 405)
2(407 398)
2(397 401)
2(408 409)
2(408 410)
2(411 412)
2(411 413)
2(414 415)
2(414 416)
2(409 417)
2(418 419)
2(418 416)
2(415 417)
2(412 410)
2(419 413)
2(423 104)
2(420 98)
2(422 101)
2(421 107)
2(425 164)
2(426 166)
2(427 158)
2(424 161)
2(428 215)
2(430 218)
2(429 212)
2(431 221)
2(432 239)
2(433 242)
2(434 245)
2(435 236)
2(12 15)
2(18 13)
2(22 19)
2(16 23)
2(21 17)
2(14 20)
2(24 27)
2(28 30)
2(31 34)
2(35 25)
2(29 32)
2(26 33)
2(36 39)
2(40 42)
2(43 46)
2(47 37)
2(41 44)
2(38 45)
2(48 51)
2(52 54)
2(55 58)
2(59 49)
2(53 56)
2(50 57)
2(60 63)
2(66 61)
2(70 67)
2(64 71)
2(69 65)
2(62 68)
2(72 75)
2(76 78)
2(79 81)
2(82 73)
2(83 77)
2(74 80)
2(84 87)
2(88 90)
2(91 94)
2(95 85)
2(86 93)
2(92 420)
2(92 421)
2(96 420)
2(96 422)
2(97 89)
2(97 422)
2(423 89)
2(423 421)
2(98 100)
2(101 103)
2(104 106)
2(107 99)
2(102 105)
2(108 111)
2(112 115)
2(116 118)
2(119 109)
2(117 113)
2(110 114)
2(120 123)
2(124 126)
2(127 130)
2(131 121)
2(125 128)
2(122 129)
2(132 135)
2(136 139)
2(140 142)
2(143 133)
2(141 137)
2(134 138)
2(144 147)
2(148 150)
2(151 154)
2(155 145)
2(146 153)
2(152 156)
2(152 424)
2(425 156)
2(425 157)
2(426 427)
2(426 157)
2(149 427)
2(149 424)
2(158 160)
2(161 163)
2(164 165)
2(166 159)
2(162 167)
2(168 171)
2(174 169)
2(178 175)
2(172 179)
2(177 173)
2(170 176)
2(180 183)
2(184 187)
2(188 190)
2(191 181)
2(189 185)
2(182 186)
2(0 193)
2(194 196)
2(197 4)
2(6 2)
2(195 11)
2(9 192)
2(198 201)
2(202 204)
2(205 208)
2(209 199)
2(200 207)
2(210 428)
2(210 429)
2(211 428)
2(211 203)
2(430 203)
2(430 431)
2(206 429)
2(206 431)
2(212 214)
2(215 217)
2(218 220)
2(221 213)
2(216 219)
2(222 225)
2(226 228)
2(229 232)
2(233 223)
2(224 231)
2(432 433)
2(432 230)
2(234 433)
2(234 434)
2(235 434)
2(235 227)
2(435 227)
2(435 230)
2(236 238)
2(239 241)
2(242 244)
2(245 237)
2(240 243)
2(246 249)
2(250 253)
2(254 256)
2(257 247)
2(255 251)
2(248 252)
2(258 261)
2(262 265)
2(266 268)
2(269 259)
2(267 263)
2(260 264)
2(270 273)
2(274 277)
2(278 280)
2(281 271)
2(279 275)
2(272 276)
2(282 285)
2(286 288)
2(289 292)
2(293 283)
2(287 290)
2(284 291)
2(294 297)
2(298 300)
2(301 304)
2(305 295)
2(299 302)
2(296 303)
2(306 309)
2(310 312)
2(313 316)
2(317 307)
2(311 314)
2(308 315)
2(318 321)
2(322 324)
2(325 328)
2(329 319)
2(323 326)
2(320 327)
2(330 1)
2(3 7)
2(5 333)
2(334 331)
2(335 10)
2(8 332)
2(336 339)
2(340 342)
2(343 345)
2(346 337)
2(347 341)
2(338 344)
2(348 351)
2(352 354)
2(355 357)
2(358 349)
2(359 353)
2(350 356)
2(360 363)
2(364 366)
2(367 370)
2(371 361)
2(365 368)
2(362 369)
2(372 375)
2(376 378)
2(379 382)
2(383 373)
2(377 380)
2(374 381)
2(384 387)
2(388 391)
2(392 394)
2(395 385)
2(389 393)
2(386 390)
2(396 399)
2(400 403)
2(404 406)
2(407 397)
2(401 405)
2(398 402)
2(408 411)
2(414 409)
2(418 415)
2(412 419)
2(417 413)
2(410 416)
4(0 1 2 3)
4(4 5 6 7)
4(6 3 8 9)
4(2 7 10 11)
)

// featurePointNormals

276
(
3(12 13 17)
3(12 13 14)
3(12 14 16)