/*--------------------------------*- C++ -*----------------------------------*\
| =========                 |                                                 |
| \\      /  F ield         | OpenFOAM: The Open Source CFD Toolbox           |
|  \\    /   O peration     | Version:  2112                                  |
|   \\  /    A nd           | Website:  www.openfoam.com                      |
|    \\/     M anipulation  |                                                 |
\*---------------------------------------------------------------------------*/
FoamFile
{
    version     2.0;
    format      ascii;
    arch        "LSB;label=32;scalar=64";
    class       extendedFeatureEdgeMesh;
    location    "constant/extendedFeatureEdgeMesh";
    object      walls.extendedFeatureEdgeMesh;
}
// * * * * * * * * * * * * * * * * * * * * * * * * * * * * * * * * * * * * * //

// points
8((0 1.006 0) (0 1.006 1.8) (0 1.42247e-16 1.8) (0 1.42247e-16 0) (1 -3.01842e-16 0) (1 -3.01842e-16 1.8) (1 1.006 0) (1 1.006 1.8))
// edges

17
(
(0 1)
(2 3)
(3 0)
(4 3)
(5 4)
(6 4)
(7 6)
(6 0)
(2 0)
(2 4)
(5 6)
(3 6)
(7 0)
(1 2)
(2 5)
(5 7)
(7 1)
)

// concaveStart mixedStart nonFeatureStart
0 0 8
// internalStart flatStart openStart multipleStart
0 8 13 17
// normals
10((1 0 -0) (4.44089e-16 1 -0) (-1 0 0) (0 -1 0) (1 0 0) (4.44089e-16 1 0) (0 0 1) (0 0 1) (-1 0 0) (0 -1 0))
// normal volume types

10
(
0
0
0
0
0
0
0
0
0
0
)

// normalDirections

17
(
2(1 -1)
2(1 -1)
2(1 -1)
2(1 -1)
2(1 -1)
2(1 -1)
2(1 -1)
2(1 -1)
2(1 -1)
2(1 -1)
2(1 -1)
2(1 -1)
2(1 -1)
1(1)
1(1)
1(1)
1(1)
)

// edgeNormals

17
(
2(0 3)
2(4 5)
2(4 6)
2(5 7)
2(1 8)
2(8 7)
2(2 9)
2(6 9)
2(0 4)
2(5 1)
2(8 2)
2(6 7)
2(9 3)
1(0)
1(1)
1(2)
1(3)
)

// featurePointNormals

8
(
3(0 3 6)
2(0 3)
2(4 5)
3(4 5 6)
3(5 7 8)
2(1 8)
3(8 7 9)
2(2 9)
)

// featurePointEdges

8
(
5(8 2 7 12 0)
3(0 13 16)
5(8 1 9 13 14)
4(1 3 11 2)
4(9 4 5 3)
4(4 10 14 15)
5(10 6 7 11 5)
4(6 12 15 16)
)

// regionEdges
4(13 14 15 16)


// ************************************************************************* //
